36
Coordinates from ORCA-job BDE E -583.773044120695
  C       4.181673     -0.078846      0.000386
  C       2.823555      0.000000      0.000000
  C       2.112869      1.269014     -0.003453
  C       0.736745      1.220444     -0.003257
  C       0.000000      0.000000      0.000000
  C       0.698793     -1.255156      0.003413
  C       2.077333     -1.242087      0.003302
  H       0.165284      2.149292     -0.005725
  H       2.640466     -2.174393      0.005768
  C       2.930113      2.544202     -0.007160
  H       3.604163      2.517968     -0.885345
  H       3.605931      2.521897      0.869776
  C       2.152189      3.862503     -0.009353
  H       1.489869      3.903064     -0.893488
  H       1.491725      3.907036      0.875983
  C       3.070703      5.090558     -0.013137
  H       3.736759      5.049521      0.868537
  H       3.734693      5.045620     -0.896181
  C       2.302996      6.414777     -0.015185
  H       1.656870      6.504672      0.875121
  H       1.654281      6.500395     -0.904028
  C      -0.100725     -2.544099      0.006918
  H      -0.776136     -2.522988      0.881950
  H      -0.776803     -2.527296     -0.867689
  C       0.690626     -3.854153      0.009824
  H       1.352245     -3.895694     -0.875019
  H       1.353067     -3.891358      0.894241
  C      -0.217374     -5.090258      0.013304
  H      -0.882210     -5.050475      0.896116
  H      -0.883238     -5.054678     -0.868911
  C       0.560402     -6.408652      0.016005
  H       1.209372     -6.489002      0.905103
  H       1.207836     -6.493569     -0.873790
  H       2.988052      7.277940     -0.018259
  H      -0.117726     -7.277362      0.018824
  H      -1.089182      0.000000      0.000000
36
Coordinates from ORCA-job BDE E -583.774616194575
  C       4.212530     -0.073218      0.000480
  C       2.846291      0.001190      0.000047
  C       2.130142      1.268662     -0.003444
  C       0.744734      1.210719     -0.003301
  C       0.027539     -0.008508      0.000054
  C       0.718783     -1.255711      0.003432
  C       2.105091     -1.246017      0.003335
  H       0.170642      2.133006     -0.005812
  H       2.666740     -2.173415      0.005802
  C       2.942392      2.552103     -0.007156
  H       3.611764      2.532236     -0.880984
  H       3.613506      2.536159      0.865421
  C       2.152823      3.867844     -0.009351
  H       1.494603      3.904213     -0.888531
  H       1.496431      3.908185      0.871025
  C       3.064131      5.105999     -0.013162
  H       3.725831      5.070735      0.863344
  H       3.723812      5.066804     -0.891022
  C       2.284521      6.428741     -0.015255
  H       1.642164      6.512728      0.869302
  H       1.639665      6.508430     -0.898391
  C      -0.094047     -2.543487      0.006951
  H      -0.763596     -2.519393      0.879338
  H      -0.764389     -2.523630     -0.864930
  C       0.685785     -3.864416      0.009794
  H       1.342467     -3.911428     -0.869956
  H       1.343424     -3.907148      0.889044
  C      -0.234334     -5.096434      0.013331
  H      -0.894158     -5.052282      0.891103
  H      -0.895306     -5.056459     -0.863777
  C       0.534935     -6.425246      0.016012
  H       1.178867     -6.509540      0.899294
  H       1.177237     -6.514071     -0.868011
  H       2.958990      7.291636     -0.018307
  H      -0.145866     -7.283212      0.018841
  H      -1.058925     -0.006935      0.000033
36
Coordinates from ORCA-job BDE E -583.774877198580
  C       4.222966     -0.075584      0.000660
  C       2.850822     -0.000959     -0.000036
  C       2.137185      1.266306     -0.003579
  C       0.746094      1.208279     -0.003577
  C       0.039501     -0.010037     -0.000180
  C       0.722910     -1.254133      0.003300
  C       2.113170     -1.249973      0.003210
  H       0.174641      2.131478     -0.006180
  H       2.673256     -2.177782      0.005716
  C       2.949606      2.551163     -0.007228
  H       3.616303      2.534493     -0.881411
  H       3.618070      2.538287      0.865677
  C       2.152741      3.864793     -0.009312
  H       1.496359      3.899439     -0.888326
  H       1.498222      3.903303      0.870933
  C       3.062257      5.106692     -0.013072
  H       3.721964      5.074439      0.863354
  H       3.719939      5.070591     -0.890868
  C       2.275449      6.428135     -0.015094
  H       1.634009      6.507854      0.869078
  H       1.631534      6.503645     -0.897834
  C      -0.097139     -2.539719      0.006911
  H      -0.762489     -2.515408      0.880859
  H      -0.763461     -2.519682     -0.866400
  C       0.682889     -3.862689      0.009713
  H       1.337637     -3.909988     -0.869964
  H       1.338830     -3.905613      0.888723
  C      -0.240164     -5.094695      0.013455
  H      -0.897717     -5.051221      0.891287
  H      -0.899092     -5.055533     -0.863550
  C       0.531583     -6.425014      0.016150
  H       1.174443     -6.507245      0.898954
  H       1.172624     -6.511905     -0.867530
  H       2.946699      7.292232     -0.018090
  H      -0.149097     -7.281742      0.019110
  H      -1.047327     -0.003369     -0.000264
36
Coordinates from ORCA-job BDE E -583.774920517202
  C       4.221596     -0.076558      0.001014
  C       2.846906     -0.001245      0.000029
  C       2.136691      1.265782     -0.003651
  C       0.743753      1.209706     -0.003816
  C       0.040562     -0.009697     -0.000351
  C       0.721195     -1.253873      0.003255
  C       2.112481     -1.251017      0.003174
  H       0.175484      2.134811     -0.006568
  H       2.672617     -2.178913      0.005689
  C       2.950521      2.549909     -0.007312
  H       3.616199      2.533964     -0.882558
  H       3.618077      2.537657      0.866579
  C       2.152672      3.863602     -0.009287
  H       1.496998      3.898634     -0.889120
  H       1.498949      3.902409      0.871843
  C       3.063244      5.105188     -0.013029
  H       3.722247      5.073287      0.864302
  H       3.720160      5.069502     -0.891780
  C       2.275410      6.426733     -0.014975
  H       1.634166      6.505141      0.869910
  H       1.631650      6.501004     -0.898389
  C      -0.100169     -2.539125      0.006919
  H      -0.763698     -2.515579      0.882370
  H      -0.764827     -2.519850     -0.867773
  C       0.682020     -3.861583      0.009652
  H       1.336109     -3.908073     -0.870915
  H       1.337511     -3.903653      0.889396
  C      -0.240288     -5.094379      0.013544
  H      -0.897063     -5.052321      0.892385
  H      -0.898642     -5.056709     -0.864314
  C       0.534578     -6.423619      0.016202
  H       1.177508     -6.503497      0.899627
  H       1.175510     -6.508226     -0.868235
  H       2.947310      7.290826     -0.017949
  H      -0.145425     -7.281391      0.019264
  H      -1.046796     -0.000010     -0.000539
36
Coordinates from ORCA-job BDE E -583.774927896977
  C       4.218714     -0.076861      0.001411
  C       2.843189     -0.000909      0.000026
  C       2.134971      1.265831     -0.003806
  C       0.741762      1.210998     -0.004162
  C       0.039252     -0.009466     -0.000633
  C       0.719503     -1.254187      0.003154
  C       2.110834     -1.250964      0.003109
  H       0.175429      2.137282     -0.007074
  H       2.671416     -2.178732      0.005671
  C       2.949610      2.549303     -0.007486
  H       3.614892      2.533457     -0.883305
  H       3.616995      2.536977      0.866812
  C       2.152643      3.863604     -0.009253
  H       1.497210      3.899355     -0.889515
  H       1.499337      3.902957      0.872439
  C       3.064239      5.104314     -0.012972
  H       3.723039      5.072044      0.864792
  H       3.720801      5.068400     -0.892271
  C       2.277143      6.426311     -0.014746
  H       1.636070      6.504538      0.870573
  H       1.633420      6.500552     -0.898483
  C      -0.101458     -2.539511      0.006898
  H      -0.764377     -2.516484      0.882995
  H      -0.765625     -2.520807     -0.868350
  C       0.681970     -3.861387      0.009623
  H       1.335778     -3.907358     -0.871459
  H       1.337330     -3.902855      0.889771
  C      -0.239361     -5.094687      0.013659
  H      -0.895861     -5.053400      0.893030
  H      -0.897587     -5.057896     -0.864621
  C       0.536961     -6.423119      0.016331
  H       1.179993     -6.501748      0.900088
  H       1.177861     -6.506585     -0.868530
  H       2.950025      7.289933     -0.017696
  H      -0.142602     -7.281536      0.019496
  H      -1.048299      0.001474     -0.000927
36
Coordinates from ORCA-job BDE E -583.774928794869
  C       4.217986     -0.077102      0.001833
  C       2.842433     -0.000700      0.000102
  C       2.134509      1.265893     -0.003912
  C       0.741425      1.211180     -0.004447
  C       0.038816     -0.009531     -0.000835
  C       0.719313     -1.254383      0.003110
  C       2.110563     -1.250785      0.003098
  H       0.175474      2.137694     -0.007527
  H       2.671291     -2.178492      0.005697
  C       2.949152      2.549274     -0.007656
  H       3.614317      2.533511     -0.883599
  H       3.616694      2.536892      0.866563
  C       2.152619      3.863790     -0.009222
  H       1.497128      3.899790     -0.889467
  H       1.499460      3.903245      0.872612
  C       3.064384      5.104272     -0.012954
  H       3.723260      5.071826      0.864776
  H       3.720835      5.068297     -0.892363
  C       2.277643      6.426423     -0.014561
  H       1.636693      6.504683      0.870860
  H       1.633870      6.500818     -0.898265
  C      -0.101394     -2.539696      0.006900
  H      -0.764315     -2.516731      0.883026
  H      -0.765630     -2.521081     -0.868323
  C       0.682088     -3.861508      0.009620
  H       1.335825     -3.907442     -0.871541
  H       1.337453     -3.902901      0.889792
  C      -0.239075     -5.094831      0.013730
  H      -0.895542     -5.053587      0.893156
  H      -0.897343     -5.058134     -0.864552
  C       0.537228     -6.423231      0.016408
  H       1.180282     -6.501746      0.900175
  H       1.178077     -6.506636     -0.868513
  H       2.950775      7.289857     -0.017517
  H      -0.142355     -7.281637      0.019626
  H      -1.048721      0.001546     -0.001238
