72
Coordinates from ORCA-job opt E -1167.718282074711
  C       2.809890     -0.000000     -0.000000
  C       2.121953      1.244220      0.006693
  C       0.728798      1.209477      0.006539
  C       0.000000      0.000000      0.000000
  C       0.687522     -1.244206     -0.006731
  C       2.080591     -1.209563     -0.006566
  H       0.160850      2.139659      0.011569
  H       2.648292     -2.139905     -0.011572
  C       2.910629      2.539427      0.013860
  H       3.587828      2.534974     -0.860251
  H       3.586713      2.525932      0.888747
  C       2.105900      3.841696      0.020073
  H       1.443516      3.878631     -0.864421
  H       1.442242      3.869512      0.903938
  C       3.001076      5.087002      0.027179
  H       3.666278      5.051525      0.909941
  H       3.667767      5.060495     -0.854772
  C       2.210300      6.397673      0.033199
  H       1.560073      6.468895      0.922246
  H       1.562137      6.478307     -0.856550
  C      -0.101079     -2.539627     -0.013816
  H      -0.778254     -2.535393      0.860304
  H      -0.777046     -2.526580     -0.888788
  C       0.704566     -3.841349     -0.019791
  H       1.368298     -3.868589     -0.903618
  H       1.366912     -3.877444      0.864765
  C      -0.188714     -5.087973     -0.026775
  H      -0.855447     -5.062485      0.855171
  H      -0.853755     -5.053842     -0.909707
  C       0.604396     -6.397276     -0.032447
  H       1.252578     -6.476627      0.857422
  H       1.254892     -6.467513     -0.921391
  H       2.879250      7.273549      0.038617
  H      -0.062980     -7.274353     -0.037816
  C       4.234776     -0.047297     -0.000253
  C       5.457846     -0.092837      0.002470
  C       6.882731     -0.140124      0.001855
  C       7.570676     -1.384345     -0.003791
  C       8.963830     -1.349595     -0.003972
  C       9.692621     -0.140106      0.001121
  C       9.005091      1.104101      0.006788
  C       7.612022      1.069451      0.006999
  H       9.531784     -2.279777     -0.008183
  H       7.044315      1.999793      0.011187
  C       6.782005     -2.679563     -0.009467
  H       6.105773     -2.666987     -0.884253
  H       6.104953     -2.674195      0.864753
  C       7.586738     -3.981834     -0.014444
  H       8.250252     -4.010578     -0.898388
  H       8.249267     -4.017833      0.869980
  C       6.691567     -5.227150     -0.020103
  H       6.024961     -5.199682      0.861882
  H       6.026280     -5.192639     -0.902840
  C       7.482348     -6.537824     -0.024771
  H       8.130551     -6.617514      0.865034
  H       8.132536     -6.609985     -0.913771
  C       9.793690      2.399532      0.012321
  H      10.469774      2.387480      0.887218
  H      10.470747      2.394307     -0.861885
  C       8.988042      3.701258      0.016933
  H       8.325552      3.736325     -0.867557
  H       8.324454      3.729519      0.900835
  C       9.881319      4.947892      0.022343
  H      10.546443      4.914817      0.905253
  H      10.547968      4.921352     -0.859635
  C       9.088206      6.257198      0.026529
  H       8.437738      6.328458      0.915412
  H       8.439996      6.335522     -0.863410
  H       6.813401     -7.413708     -0.029234
  H       9.755580      7.134283      0.030868
  H      10.782496     -0.140098      0.000837
  H      -1.089875      0.000000      0.000000
72
Coordinates from ORCA-job opt E -1167.719455594709
  C       2.808296     -0.007190     -0.002971
  C       2.116780      1.233464      0.006641
  C       0.720049      1.191060      0.008607
  C       0.009332     -0.015304      0.001367
  C       0.688264     -1.250658     -0.008383
  C       2.083487     -1.218769     -0.010328
  H       0.147304      2.120055      0.016049
  H       2.653656     -2.148154     -0.017147
  C       2.902333      2.531396      0.014841
  H       3.577699      2.531243     -0.860817
  H       3.581106      2.518139      0.887768
  C       2.095440      3.832333      0.026289
  H       1.430157      3.870277     -0.856093
  H       1.434490      3.857333      0.912374
  C       2.988607      5.079081      0.033231
  H       3.657465      5.042272      0.913244
  H       3.651993      5.055813     -0.851295
  C       2.196314      6.388877      0.045651
  H       1.549382      6.457084      0.937383
  H       1.544608      6.471069     -0.841413
  C      -0.110820     -2.543193     -0.015727
  H      -0.784759     -2.537785      0.861916
  H      -0.788035     -2.525915     -0.890697
  C       0.682484     -3.852172     -0.026170
  H       1.343205     -3.882374     -0.911955
  H       1.347566     -3.894037      0.855952
  C      -0.219428     -5.092793     -0.032250
  H      -0.883261     -5.064372      0.851879
  H      -0.887093     -5.052968     -0.913048
  C       0.564516     -6.407624     -0.042469
  H       1.214955     -6.492841      0.845213
  H       1.211743     -6.480920     -0.933554
  H       2.864172      7.265673      0.050759
  H      -0.108899     -7.280129     -0.047106
  C       4.235084     -0.049392     -0.003194
  C       5.457545     -0.090618     -0.000446
  C       6.884332     -0.132849     -0.000881
  C       7.575808     -1.373559     -0.003538
  C       8.972539     -1.331227     -0.001074
  C       9.683296     -0.124873      0.003717
  C       9.004404      1.110540      0.005970
  C       7.609180      1.078721      0.003637
  H       9.545253     -2.260269     -0.002787
  H       7.039042      2.008148      0.005845
  C       6.790204     -2.671477     -0.008661
  H       6.116032     -2.662979     -0.885206
  H       6.110241     -2.666476      0.863417
  C       7.597033     -3.972503     -0.008448
  H       8.263710     -4.002104     -0.890091
  H       8.256578     -4.005946      0.878411
  C       6.703808     -5.219213     -0.014872
  H       6.033262     -5.190573      0.864156
  H       6.042123     -5.187663     -0.900419
  C       7.496028     -6.529111     -0.013213
  H       8.140618     -6.606096      0.879499
  H       8.150054     -6.602634     -0.899330
  C       9.803538      2.403055      0.011330
  H      10.475682      2.390171      0.890277
  H      10.482537      2.393169     -0.862364
  C       9.010296      3.712112      0.010291
  H       8.351541      3.749749     -0.876681
  H       8.343262      3.746631      0.891249
  C       9.912252      4.952698      0.016677
  H      10.573728      4.917101      0.902314
  H      10.582261      4.919961     -0.862631
  C       9.128373      6.267606      0.015039
  H       8.474891      6.345230      0.901179
  H       8.484212      6.348583     -0.877603
  H       6.828134     -7.405878     -0.018470
  H       9.801817      7.140087      0.020219
  H      10.776419     -0.128843      0.005617
  H      -1.083792     -0.011389      0.003241
72
Coordinates from ORCA-job opt E -1167.719672855446
  C       2.806855     -0.009810      0.000230
  C       2.115483      1.230489      0.000309
  C       0.716086      1.186312      0.000259
  C       0.016200     -0.020351      0.000071
  C       0.688769     -1.252806     -0.000333
  C       2.085306     -1.223875     -0.000515
  H       0.144401      2.116073      0.000327
  H       2.657032     -2.152509     -0.000979
  C       2.899895      2.528774      0.000027
  H       3.576431      2.523726     -0.874772
  H       3.577738      2.523347      0.873770
  C       2.090427      3.828204      0.000942
  H       1.425969      3.858311     -0.882426
  H       1.428274      3.858442      0.886043
  C       2.980703      5.076937     -0.000407
  H       3.648838      5.048046      0.880412
  H       3.644989      5.048615     -0.884118
  C       2.185861      6.385223      0.001657
  H       1.537911      6.458767      0.892237
  H       1.534858      6.459685     -0.886612
  C      -0.116319     -2.542707     -0.000224
  H      -0.789871     -2.530237      0.877625
  H      -0.790480     -2.530230     -0.877599
  C       0.672302     -3.854492     -0.000570
  H       1.334459     -3.891766     -0.885221
  H       1.336395     -3.891244      0.882674
  C      -0.231905     -5.093129      0.000742
  H      -0.896975     -5.057487      0.883735
  H      -0.898333     -5.058426     -0.881264
  C       0.549510     -6.409482      0.000818
  H       1.198571     -6.489731      0.889964
  H       1.197802     -6.490280     -0.888834
  H       2.851951      7.263379      0.000976
  H      -0.125614     -7.280667      0.001364
  C       4.235250     -0.050083     -0.000059
  C       5.457378     -0.089874      0.002632
  C       6.885769     -0.130205      0.002340
  C       7.577047     -1.370497     -0.009858
  C       8.976445     -1.326436     -0.009224
  C       9.676421     -0.119885      0.002759
  C       9.003948      1.112569      0.014366
  C       7.607407      1.083756      0.013654
  H       9.548058     -2.256197     -0.018298
  H       7.035752      2.012394      0.022231
  C       6.792522     -2.668641     -0.023613
  H       6.117223     -2.655138     -0.899286
  H       6.113443     -2.671510      0.849173
  C       7.601856     -3.968114     -0.033979
  H       8.267824     -3.989805     -0.916451
  H       8.262485     -4.006946      0.851929
  C       6.711444     -5.216660     -0.048998
  H       6.041471     -5.195999      0.830653
  H       6.049009     -5.179900     -0.933790
  C       7.506129     -6.525016     -0.057712
  H       8.151548     -6.607533      0.833917
  H       8.159631     -6.590703     -0.944838
  C       9.809152      2.402331      0.027485
  H      10.480193      2.382588      0.907135
  H      10.485815      2.396960     -0.848021
  C       9.020669      3.714176      0.035556
  H       8.361192      3.758657     -0.850770
  H       8.353919      3.743903      0.917051
  C       9.925003      4.952640      0.049689
  H      10.586975      4.910035      0.934701
  H      10.594511      4.924707     -0.830221
  C       9.143741      6.269064      0.057321
  H       8.490889      6.342021      0.944314
  H       8.499275      6.357340     -0.834399
  H       6.839943     -7.403026     -0.069056
  H       9.818955      7.140114      0.068001
  H      10.770614     -0.130086      0.003067
  H      -1.077993     -0.010238      0.000208
72
Coordinates from ORCA-job opt E -1167.719695343493
  C       2.806398     -0.009631     -0.001597
  C       2.116172      1.231092      0.008735
  C       0.716081      1.187745      0.008990
  C       0.017817     -0.020216     -0.000510
  C       0.689272     -1.253245     -0.010573
  C       2.086048     -1.224673     -0.010876
  H       0.146512      2.118432      0.016908
  H       2.658606     -2.152586     -0.018491
  C       2.901037      2.528868      0.019372
  H       3.577375      2.531543     -0.855569
  H       3.579145      2.516074      0.892842
  C       2.091233      3.828144      0.031765
  H       1.426697      3.865823     -0.851249
  H       1.429068      3.850336      0.917094
  C       2.980785      5.077313      0.041442
  H       3.648812      5.041048      0.922043
  H       3.645151      5.057161     -0.842437
  C       2.185284      6.385111      0.054999
  H       1.537342      6.450554      0.946218
  H       1.534194      6.467053     -0.832550
  C      -0.116694     -2.542474     -0.020444
  H      -0.789441     -2.536920      0.857950
  H      -0.790274     -2.523073     -0.897999
  C       0.672199     -3.854248     -0.031217
  H       1.334601     -3.883958     -0.916003
  H       1.336244     -3.897608      0.851758
  C      -0.231313     -5.093155     -0.039962
  H      -0.896480     -5.065113      0.843239
  H      -0.897751     -5.051758     -0.921679
  C       0.550800     -6.409070     -0.050499
  H       1.199920     -6.496136      0.837957
  H       1.199114     -6.482372     -0.940789
  H       2.850929      7.263571      0.061976
  H      -0.123897     -7.280562     -0.056944
  C       4.235232     -0.049904     -0.001821
  C       5.457378     -0.089948      0.000842
  C       6.886209     -0.130327      0.000586
  C       7.576319     -1.371159     -0.001423
  C       8.976412     -1.327952     -0.000449
  C       9.674790     -0.120023      0.002355
  C       9.003452      1.113109      0.004384
  C       7.606672      1.084678      0.003484
  H       9.545893     -2.258726     -0.001744
  H       7.034204      2.012677      0.004924
  C       6.791327     -2.668899     -0.004343
  H       6.116216     -2.663060     -0.880223
  H       6.111997     -2.664460      0.868253
  C       7.600990     -3.968322     -0.003320
  H       8.267060     -3.997508     -0.885493
  H       8.261609     -3.999176      0.882910
  C       6.711296     -5.217422     -0.007441
  H       6.041390     -5.189450      0.872029
  H       6.048827     -5.188778     -0.892513
  C       7.506632     -6.525388     -0.004704
  H       8.151968     -6.599882      0.887694
  H       8.160297     -6.598468     -0.891134
  C       9.809556      2.402285      0.007742
  H      10.479277      2.389625      0.888388
  H      10.486148      2.389822     -0.867603
  C       9.020830      3.714201      0.004689
  H       8.361576      3.750922     -0.882192
  H       8.353661      3.750727      0.885604
  C       9.924494      4.953021      0.009006
  H      10.586079      4.918187      0.894654
  H      10.594488      4.918222     -0.870296
  C       9.142567      6.269084      0.005342
  H       8.489164      6.349015      0.891324
  H       8.498574      6.349703     -0.887450
  H       6.840886     -7.403792     -0.008528
  H       9.817370      7.140509      0.009249
  H      10.769082     -0.133209      0.003123
  H      -1.076477     -0.007139      0.000102
72
Coordinates from ORCA-job opt E -1167.719699137269
  C       2.806157     -0.009213      0.000906
  C       2.117008      1.231885     -0.002134
  C       0.716569      1.189374     -0.003189
  C       0.018691     -0.019760     -0.001197
  C       0.689867     -1.253569      0.001993
  C       2.086671     -1.224899      0.002837
  H       0.149022      2.121032     -0.005713
  H       2.660082     -2.152173      0.005031
  C       2.902504      2.529212     -0.004624
  H       3.580450      2.522025     -0.878296
  H       3.579079      2.526173      0.870102
  C       2.092965      3.828799     -0.008453
  H       1.430481      3.856732     -0.893375
  H       1.428745      3.860961      0.875024
  C       2.982499      5.077986     -0.010647
  H       3.647970      5.051911      0.872244
  H       3.649365      5.047703     -0.892356
  C       2.186963      6.385811     -0.014386
  H       1.536427      6.461474      0.874128
  H       1.538460      6.457594     -0.904709
  C      -0.116262     -2.542494      0.004362
  H      -0.790311     -2.527616      0.881525
  H      -0.787585     -2.532678     -0.874957
  C       0.673565     -3.853972      0.009430
  H       1.338215     -3.892521     -0.873321
  H       1.335500     -3.887212      0.894428
  C      -0.228974     -5.093463      0.011792
  H      -0.896404     -5.056484      0.892953
  H      -0.893273     -5.062194     -0.871956
  C       0.554142     -6.408839      0.017415
  H       1.201078     -6.485830      0.908397
  H       1.204756     -6.491236     -0.870392
  H       2.852604      7.264299     -0.015535
  H      -0.119919     -7.280846      0.018660
  C       4.235227     -0.049735      0.000667
  C       5.457395     -0.090291      0.003264
  C       6.886461     -0.130856      0.003107
  C       7.575553     -1.371897     -0.012345
  C       8.975994     -1.329447     -0.012642
  C       9.673927     -0.120429      0.001803
  C       9.002808      1.113319      0.017233
  C       7.606002      1.084714      0.017394
  H       9.543496     -2.261061     -0.024466
  H       7.032636      2.011950      0.028689
  C       6.789997     -2.669089     -0.028482
  H       6.113260     -2.653369     -0.902985
  H       6.112215     -2.674506      0.845290
  C       7.599472     -3.968632     -0.043777
  H       8.263509     -3.987963     -0.927758
  H       8.262137     -4.009479      0.840515
  C       6.709867     -5.217667     -0.059873
  H       6.042472     -5.199977      0.821769
  H       6.044929     -5.178893     -0.942709
  C       7.505322     -6.525466     -0.074464
  H       8.153182     -6.610207      0.815185
  H       8.156490     -6.588269     -0.963519
  C       9.809004      2.402105      0.033156
  H      10.479359      2.380341      0.913022
  H      10.484015      2.399059     -0.843364
  C       9.019250      3.713584      0.045069
  H       8.358317      3.758868     -0.840161
  H       8.353606      3.740202      0.927494
  C       9.921859      4.952926      0.060783
  H      10.585137      4.909394      0.944778
  H      10.590302      4.928083     -0.820037
  C       9.138825      6.268312      0.072453
  H       8.486992      6.338328      0.960434
  H       8.493123      6.357807     -0.818250
  H       6.839628     -7.403831     -0.086544
  H       9.812936      7.140200      0.084319
  H      10.768158     -0.136018      0.001014
  H      -1.075540     -0.004215     -0.002136
72
Coordinates from ORCA-job opt E -1167.719701043430
  C       2.806187     -0.008947     -0.000379
  C       2.116929      1.232037      0.006302
  C       0.716608      1.189395      0.005925
  C       0.018389     -0.019587     -0.000737
  C       0.689850     -1.253329     -0.007304
  C       2.086585     -1.224478     -0.007005
  H       0.149057      2.121078      0.010950
  H       2.660091     -2.151708     -0.011923
  C       2.902302      2.529439      0.013658
  H       3.579671      2.529312     -0.860477
  H       3.579471      2.519428      0.887885
  C       2.092745      3.828998      0.020891
  H       1.429662      3.864103     -0.863332
  H       1.429156      3.853998      0.905077
  C       2.982285      5.078162      0.028258
  H       3.648352      5.044902      0.910462
  H       3.648550      5.055092     -0.854121
  C       2.186705      6.385948      0.035739
  H       1.536829      6.454355      0.925325
  H       1.537536      6.464954     -0.853485
  C      -0.116134     -2.542291     -0.014339
  H      -0.789695     -2.534195      0.863289
  H      -0.788080     -2.525686     -0.893090
  C       0.673819     -3.853702     -0.019936
  H       1.337903     -3.885351     -0.903376
  H       1.336281     -3.893793      0.864380
  C      -0.228728     -5.093189     -0.026701
  H      -0.895574     -5.063154      0.855166
  H      -0.893623     -5.054973     -0.909725
  C       0.554378     -6.408581     -0.031953
  H       1.201930     -6.492567      0.857944
  H       1.204375     -6.484000     -0.920835
  H       2.852325      7.264434      0.041244
  H      -0.119691     -7.280567     -0.037085
  C       4.235220     -0.049577     -0.000561
  C       5.457394     -0.090378      0.002005
  C       6.886423     -0.131079      0.001825
  C       7.575608     -1.372111     -0.003933
  C       8.975931     -1.329552     -0.003523
  C       9.674222     -0.120607      0.002323
  C       9.002834      1.113178      0.008048
  C       7.606097      1.084412      0.007624
  H       9.543427     -2.261273     -0.007827
  H       7.032647      2.011680      0.011829
  C       6.790160     -2.669472     -0.010274
  H       6.114011     -2.660784     -0.885317
  H       6.111774     -2.667933      0.863058
  C       7.599636     -3.969095     -0.014525
  H       8.264282     -3.995583     -0.897867
  H       8.261655     -4.002802      0.870553
  C       6.710014     -5.218205     -0.021095
  H       6.042007     -5.193340      0.859914
  H       6.045698     -5.186634     -0.904682
  C       7.505500     -6.526065     -0.024462
  H       8.152667     -6.603569      0.866351
  H       8.157363     -6.596077     -0.912468
  C       9.808902      2.402090      0.014695
  H      10.478517      2.387182      0.895271
  H      10.484783      2.392192     -0.861112
  C       9.019049      3.713574      0.015627
  H       8.358874      3.751855     -0.870487
  H       8.352693      3.747139      0.897272
  C       9.921687      4.952996      0.022282
  H      10.584196      4.916494      0.907172
  H      10.590904      4.921128     -0.857721
  C       9.138693      6.268465      0.022794
  H       8.486055      6.345546      0.909595
  H       8.493805      6.350900     -0.869181
  H       6.839820     -7.404507     -0.029929
  H       9.812825      7.140399      0.028356
  H      10.768397     -0.136211      0.002408
  H      -1.075787     -0.004048     -0.000821
72
Coordinates from ORCA-job opt E -1167.719701286261
  C       2.806215     -0.008849     -0.000518
  C       2.116849      1.232073      0.005017
  C       0.716568      1.189281      0.004739
  C       0.018270     -0.019596     -0.000711
  C       0.689838     -1.253251     -0.006074
  C       2.086543     -1.224324     -0.005875
  H       0.148965      2.120970      0.008875
  H       2.660104     -2.151539     -0.009890
  C       2.902143      2.529537      0.011024
  H       3.579540      2.528488     -0.863090
  H       3.579292      2.520482      0.885281
  C       2.092615      3.829114      0.016831
  H       1.429592      3.863298     -0.867474
  H       1.428988      3.855099      0.900959
  C       2.982228      5.078238      0.022917
  H       3.648160      5.045943      0.905260
  H       3.648626      5.054143     -0.859333
  C       2.186702      6.386070      0.028804
  H       1.536676      6.455491      0.918200
  H       1.537693      6.464118     -0.860620
  C      -0.116108     -2.542264     -0.011792
  H      -0.789874     -2.533157      0.865674
  H      -0.787926     -2.526669     -0.890670
  C       0.673844     -3.853681     -0.015728
  H       1.338097     -3.886355     -0.898998
  H       1.336112     -3.892748      0.868777
  C      -0.228741     -5.093158     -0.021257
  H      -0.895783     -5.062085      0.860426
  H      -0.893443     -5.055943     -0.904469
  C       0.554314     -6.408591     -0.024818
  H       1.201648     -6.491584      0.865332
  H       1.204523     -6.485045     -0.913455
  H       2.852363      7.264532      0.033450
  H      -0.119787     -7.280556     -0.029117
  C       4.235228     -0.049513     -0.000682
  C       5.457387     -0.090472      0.001857
  C       6.886397     -0.131194      0.001710
  C       7.575703     -1.372144     -0.005229
  C       8.975986     -1.329421     -0.004678
  C       9.674343     -0.120587      0.002451
  C       9.002835      1.113092      0.009420
  C       7.606129      1.084236      0.008846
  H       9.543543     -2.261132     -0.009904
  H       7.032613      2.011474      0.013970
  C       6.790347     -2.669561     -0.012991
  H       6.114193     -2.659928     -0.888021
  H       6.111958     -2.669014      0.860344
  C       7.599809     -3.969180     -0.018687
  H       8.264421     -3.994714     -0.902084
  H       8.261842     -4.003892      0.866342
  C       6.710129     -5.218246     -0.026599
  H       6.042224     -5.194374      0.854516
  H       6.045711     -5.185639     -0.910071
  C       7.505579     -6.526128     -0.031559
  H       8.152853     -6.604665      0.859085
  H       8.157329     -6.595148     -0.919724
  C       9.808849      2.402051      0.017513
  H      10.478394      2.386219      0.898133
  H      10.484877      2.393084     -0.858200
  C       9.018981      3.713523      0.019745
  H       8.358847      3.752704     -0.866356
  H       8.352606      3.746175      0.901409
  C       9.921639      4.952933      0.027702
  H      10.584144      4.915497      0.912555
  H      10.590864      4.921976     -0.852328
  C       9.138677      6.268424      0.029581
  H       8.486042      6.344596      0.916463
  H       8.493789      6.351797     -0.862307
  H       6.839870     -7.404544     -0.037943
  H       9.812829      7.140336      0.036046
  H      10.768512     -0.136201      0.002631
  H      -1.075900     -0.004037     -0.000723
