49
Coordinates from ORCA-job opt_cc-pVDZ E -928.902320156731
  C       4.055651     -0.073547      0.001259
  C       2.833542     -0.006600     -0.001853
  C      -2.844938      0.019403     -0.004605
  C       1.413420      0.037578     -0.002650
  C       0.700732      1.295437     -0.002274
  C      -0.721501      1.219563     -0.002939
  C      -1.411453      0.007143     -0.003953
  C      -0.698523     -1.233355     -0.004352
  C       0.695582     -1.174421     -0.003778
  H      -1.303965      2.141141     -0.002676
  H       1.274536     -2.097754     -0.004091
  C       1.376735      2.533606     -0.001170
  H       2.469590      2.505778     -0.000846
  C       0.711209      3.877604     -0.000569
  H       0.041247      3.969721     -0.880342
  H       0.037271      3.967005      0.876408
  C       1.701375      5.049653      0.003518
  H       2.358700      4.962416      0.887902
  H       2.362825      4.965169     -0.878056
  C       1.013980      6.416414      0.004035
  H       0.370653      6.541162      0.892218
  H       0.374821      6.543928     -0.886762
  C      -1.466096     -2.538946     -0.005338
  H      -2.145195     -2.541193      0.867755
  H      -2.144376     -2.540390     -0.879069
  C      -0.640631     -3.828188     -0.005524
  H       0.023196     -3.849353     -0.889420
  H       0.022302     -3.850153      0.879024
  C      -1.515380     -5.087922     -0.006538
  H      -2.182257     -5.068236      0.875347
  H      -2.181205     -5.067554     -0.889201
  C      -0.702663     -6.385165     -0.006558
  H      -0.052972     -6.450617      0.883324
  H      -0.051766     -6.449835     -0.895614
  C      -4.060832      0.033276     -0.006062
  H      -5.133143      0.050044     -0.008099
  H       1.748932      7.237402      0.007037
  H      -1.357003     -7.272006     -0.007390
  C       8.290611     -0.349909      0.011621
  C       7.669126      0.904242      0.011288
  C       6.278191      1.001489      0.007860
  C       5.479290     -0.163666      0.004675
  C       6.117697     -1.424276      0.005036
  C       7.509166     -1.511211      0.008484
  H       9.380725     -0.422104      0.014310
  H       5.506205     -2.328550      0.002590
  H       8.273734      1.814420      0.013750
  H       7.988600     -2.493123      0.008723
  H       5.792435      1.979098      0.007626
49
Coordinates from ORCA-job opt_cc-pVDZ E -928.902320302558
  C       4.055706     -0.073371      0.001296
  C       2.833589     -0.006538     -0.001788
  C      -2.844896      0.019441     -0.004853
  C       1.413452      0.037492     -0.002626
  C       0.700746      1.295345     -0.002276
  C      -0.721463      1.219527     -0.003060
  C      -1.411403      0.007110     -0.004114
  C      -0.698475     -1.233396     -0.004423
  C       0.695638     -1.174525     -0.003765
  H      -1.303846      2.141153     -0.002844
  H       1.274517     -2.097895     -0.004026
  C       1.376832      2.533498     -0.001126
  H       2.469694      2.505632     -0.000730
  C       0.711306      3.877473     -0.000581
  H       0.041481      3.969632     -0.880471
  H       0.037166      3.966822      0.876259
  C       1.701380      5.049569      0.003759
  H       2.358533      4.962282      0.888281
  H       2.362997      4.965135     -0.877712
  C       1.013977      6.416298      0.004221
  H       0.370441      6.540985      0.892269
  H       0.374953      6.543854     -0.886675
  C      -1.466173     -2.538927     -0.005427
  H      -2.145358     -2.541094      0.867612
  H      -2.144360     -2.540372     -0.879243
  C      -0.640808     -3.828219     -0.005469
  H       0.023102     -3.849434     -0.889318
  H       0.022055     -3.850135      0.879151
  C      -1.515522     -5.087936     -0.006485
  H      -2.182461     -5.068245      0.875368
  H      -2.181282     -5.067647     -0.889215
  C      -0.702818     -6.385152     -0.006382
  H      -0.053167     -6.450604      0.883538
  H      -0.051837     -6.449911     -0.895380
  C      -4.060788      0.033376     -0.006353
  H      -5.133102      0.050110     -0.008357
  H       1.748939      7.237269      0.007413
  H      -1.357157     -7.271992     -0.007216
  C       8.290695     -0.349767      0.011455
  C       7.669171      0.904370      0.011023
  C       6.278250      1.001632      0.007668
  C       5.479338     -0.163533      0.004673
  C       6.117761     -1.424109      0.005135
  C       7.509230     -1.511054      0.008499
  H       9.380814     -0.421986      0.014080
  H       5.506311     -2.328412      0.002815
  H       8.273777      1.814555      0.013324
  H       7.988698     -2.492952      0.008817
  H       5.792544      1.979267      0.007327
