49
Coordinates from ORCA-job opt_EPRII E -928.972814931424
  C       4.055651     -0.073547      0.001259
  C       2.833542     -0.006600     -0.001853
  C      -2.844938      0.019403     -0.004605
  C       1.413420      0.037578     -0.002650
  C       0.700732      1.295437     -0.002274
  C      -0.721501      1.219563     -0.002939
  C      -1.411453      0.007143     -0.003953
  C      -0.698523     -1.233355     -0.004352
  C       0.695582     -1.174421     -0.003778
  H      -1.303965      2.141141     -0.002676
  H       1.274536     -2.097754     -0.004091
  C       1.376735      2.533606     -0.001170
  H       2.469590      2.505778     -0.000846
  C       0.711209      3.877604     -0.000569
  H       0.041247      3.969721     -0.880342
  H       0.037271      3.967005      0.876408
  C       1.701375      5.049653      0.003518
  H       2.358700      4.962416      0.887902
  H       2.362825      4.965169     -0.878056
  C       1.013980      6.416414      0.004035
  H       0.370653      6.541162      0.892218
  H       0.374821      6.543928     -0.886762
  C      -1.466096     -2.538946     -0.005338
  H      -2.145195     -2.541193      0.867755
  H      -2.144376     -2.540390     -0.879069
  C      -0.640631     -3.828188     -0.005524
  H       0.023196     -3.849353     -0.889420
  H       0.022302     -3.850153      0.879024
  C      -1.515380     -5.087922     -0.006538
  H      -2.182257     -5.068236      0.875347
  H      -2.181205     -5.067554     -0.889201
  C      -0.702663     -6.385165     -0.006558
  H      -0.052972     -6.450617      0.883324
  H      -0.051766     -6.449835     -0.895614
  C      -4.060832      0.033276     -0.006062
  H      -5.133143      0.050044     -0.008099
  H       1.748932      7.237402      0.007037
  H      -1.357003     -7.272006     -0.007390
  C       8.290611     -0.349909      0.011621
  C       7.669126      0.904242      0.011288
  C       6.278191      1.001489      0.007860
  C       5.479290     -0.163666      0.004675
  C       6.117697     -1.424276      0.005036
  C       7.509166     -1.511211      0.008484
  H       9.380725     -0.422104      0.014310
  H       5.506205     -2.328550      0.002590
  H       8.273734      1.814420      0.013750
  H       7.988600     -2.493123      0.008723
  H       5.792435      1.979098      0.007626
49
Coordinates from ORCA-job opt_EPRII E -928.973911675217
  C       4.057375     -0.073527      0.001287
  C       2.832296     -0.008514     -0.001777
  C      -2.855302      0.019994     -0.005020
  C       1.409837      0.035084     -0.002578
  C       0.696756      1.295479     -0.002284
  C      -0.728404      1.221699     -0.003174
  C      -1.419511      0.006744     -0.004265
  C      -0.706406     -1.236863     -0.004488
  C       0.690622     -1.179199     -0.003732
  H      -1.306566      2.139352     -0.002985
  H       1.265371     -2.098435     -0.003949
  C       1.376903      2.535276     -0.001025
  H       2.463682      2.505887     -0.000483
  C       0.713225      3.884377     -0.000549
  H       0.049232      3.978533     -0.875982
  H       0.044602      3.975688      0.871619
  C       1.708699      5.056772      0.004034
  H       2.360774      4.969247      0.883513
  H       2.365580      4.972119     -0.872150
  C       1.022222      6.429154      0.004393
  H       0.383206      6.553748      0.886650
  H       0.388034      6.556623     -0.880933
  C      -1.476383     -2.544728     -0.005520
  H      -2.150536     -2.547834      0.863251
  H      -2.149403     -2.547163     -0.875171
  C      -0.647532     -3.835977     -0.005457
  H       0.012046     -3.857056     -0.884307
  H       0.010845     -3.857712      0.874279
  C      -1.522798     -5.099779     -0.006525
  H      -2.185110     -5.081451      0.870180
  H      -2.183763     -5.080906     -0.884233
  C      -0.706161     -6.400031     -0.006303
  H      -0.060990     -6.463494      0.877935
  H      -0.059489     -6.462852     -0.889490
  C      -4.075150      0.032655     -0.006539
  H      -5.140600      0.048137     -0.008546
  H       1.754389      7.243555      0.007719
  H      -1.355299     -7.282272     -0.007172
  C       8.304245     -0.342980      0.011363
  C       7.678000      0.914067      0.010597
  C       6.282762      1.008679      0.007248
  C       5.484384     -0.161380      0.004638
  C       6.126293     -1.424416      0.005386
  C       7.522016     -1.509392      0.008736
  H       9.388918     -0.412852      0.013965
  H       5.519280     -2.325166      0.003347
  H       8.277780      1.820717      0.012613
  H       8.000795     -2.485393      0.009299
  H       5.797410      1.980403      0.006653
49
Coordinates from ORCA-job opt_EPRII E -928.973962501831
  C       4.056703     -0.074419      0.001207
  C       2.831056     -0.010846     -0.001820
  C      -2.857669      0.021218     -0.005367
  C       1.408086      0.032844     -0.002648
  C       0.695810      1.294030     -0.002390
  C      -0.729988      1.222710     -0.003390
  C      -1.421395      0.007168     -0.004484
  C      -0.709426     -1.237466     -0.004624
  C       0.688336     -1.181772     -0.003796
  H      -1.306586      2.140997     -0.003263
  H       1.261556     -2.101610     -0.003953
  C       1.378160      2.533454     -0.001016
  H       2.464523      2.503519     -0.000317
  C       0.714140      3.884005     -0.000617
  H       0.052852      3.979262     -0.876751
  H       0.047481      3.976161      0.871734
  C       1.713208      5.055218      0.004572
  H       2.363199      4.967693      0.884579
  H       2.368784      4.970812     -0.871598
  C       1.025868      6.429337      0.004817
  H       0.387304      6.552757      0.886781
  H       0.392891      6.555864     -0.880729
  C      -1.481239     -2.545321     -0.005650
  H      -2.153423     -2.548992      0.863596
  H      -2.152094     -2.548446     -0.875926
  C      -0.648973     -3.836061     -0.005396
  H       0.009215     -3.856897     -0.884318
  H       0.007836     -3.857407      0.874547
  C      -1.525060     -5.101031     -0.006445
  H      -2.185838     -5.083866      0.870422
  H      -2.184323     -5.083464     -0.884443
  C      -0.704858     -6.401305     -0.006035
  H      -0.060522     -6.462333      0.878211
  H      -0.058853     -6.461834     -0.889096
  C      -4.078074      0.032538     -0.006963
  H      -5.143759      0.046832     -0.008964
  H       1.758763      7.242370      0.008561
  H      -1.353022     -7.283591     -0.006893
  C       8.305832     -0.338834      0.011153
  C       7.677411      0.918415      0.009896
  C       6.281138      1.011339      0.006587
  C       5.484502     -0.160662      0.004503
  C       6.127563     -1.423788      0.005756
  C       7.524317     -1.507105      0.009064
  H       9.390192     -0.407369      0.013727
  H       5.521716     -2.324905      0.004133
  H       8.275961      1.825427      0.011492
  H       8.004290     -2.482096      0.010012
  H       5.794589      1.982069      0.005609
49
Coordinates from ORCA-job opt_EPRII E -928.973977002910
  C       4.056590     -0.074852      0.001151
  C       2.830817     -0.013009     -0.001840
  C      -2.857542      0.021759     -0.005891
  C       1.407691      0.030807     -0.002727
  C       0.696241      1.292378     -0.002550
  C      -0.729713      1.222984     -0.003726
  C      -1.421092      0.007217     -0.004842
  C      -0.710303     -1.237905     -0.004822
  C       0.687755     -1.183777     -0.003874
  H      -1.305177      2.141975     -0.003711
  H       1.259900     -2.104254     -0.003938
  C       1.380065      2.531314     -0.001067
  H       2.466406      2.501285     -0.000189
  C       0.715436      3.882470     -0.000802
  H       0.056439      3.978454     -0.878323
  H       0.049996      3.975010      0.872173
  C       1.716763      5.052731      0.005239
  H       2.364969      4.965395      0.886443
  H       2.371682      4.968847     -0.871337
  C       1.028471      6.427616      0.005295
  H       0.389789      6.549572      0.887358
  H       0.396476      6.552988     -0.881098
  C      -1.484025     -2.545386     -0.005821
  H      -2.154882     -2.549024      0.864234
  H      -2.153236     -2.548707     -0.877146
  C      -0.650639     -3.836405     -0.005241
  H       0.006530     -3.857889     -0.884741
  H       0.004876     -3.858129      0.875489
  C      -1.528497     -5.101042     -0.006231
  H      -2.188210     -5.084096      0.871302
  H      -2.186428     -5.083963     -0.885097
  C      -0.707025     -6.401799     -0.005495
  H      -0.063316     -6.461204      0.879307
  H      -0.061382     -6.460977     -0.888902
  C      -4.078001      0.031130     -0.007584
  H      -5.143815      0.043792     -0.009575
  H       1.762140      7.240035      0.009635
  H      -1.355766     -7.283728     -0.006313
  C       8.306115     -0.333528      0.010842
  C       7.675832      0.923066      0.009571
  C       6.279246      1.014163      0.006356
  C       5.484727     -0.159276      0.004385
  C       6.128989     -1.421768      0.005638
  C       7.526060     -1.503070      0.008854
  H       9.390607     -0.400596      0.013344
  H       5.524304     -2.323700      0.004087
  H       8.273366      1.830830      0.011080
  H       8.007664     -2.477332      0.009808
  H       5.791285      1.984215      0.005357
49
Coordinates from ORCA-job opt_EPRII E -928.973979790142
  C       4.056710     -0.075015      0.001059
  C       2.830972     -0.014286     -0.001905
  C      -2.856945      0.021951     -0.006287
  C       1.407859      0.029765     -0.002848
  C       0.696875      1.291489     -0.002739
  C      -0.729037      1.222803     -0.004018
  C      -1.420478      0.007124     -0.005121
  C      -0.710258     -1.238113     -0.004993
  C       0.687806     -1.184608     -0.003975
  H      -1.304035      2.142111     -0.004090
  H       1.259524     -2.105412     -0.003968
  C       1.381199      2.530165     -0.001203
  H       2.467572      2.500185     -0.000244
  C       0.716426      3.881387     -0.001015
  H       0.058507      3.977654     -0.879367
  H       0.051114      3.973854      0.872112
  C       1.718151      5.051417      0.005814
  H       2.365448      4.964119      0.887761
  H       2.373159      4.967925     -0.870805
  C       1.029597      6.426408      0.005751
  H       0.390564      6.547599      0.887742
  H       0.398226      6.551349     -0.881224
  C      -1.484738     -2.545277     -0.005955
  H      -2.155221     -2.548672      0.864426
  H      -2.153349     -2.548546     -0.877782
  C      -0.651744     -3.836702     -0.005126
  H       0.005087     -3.858765     -0.884932
  H       0.003260     -3.858769      0.876044
  C      -1.530467     -5.100812     -0.006031
  H      -2.189851     -5.083647      0.871819
  H      -2.187905     -5.083747     -0.885341
  C      -0.709249     -6.401962     -0.005045
  H      -0.065820     -6.460904      0.880070
  H      -0.063728     -6.460917     -0.888634
  C      -4.077317      0.029964     -0.008042
  H      -5.143172      0.041585     -0.010008
  H       1.763558      7.238666      0.010647
  H      -1.358643     -7.283503     -0.005801
  C       8.306003     -0.330434      0.010620
  C       7.674843      0.925540      0.009291
  C       6.278305      1.015610      0.006117
  C       5.484902     -0.158418      0.004242
  C       6.129947     -1.420344      0.005568
  C       7.526975     -1.500469      0.008742
  H       9.390619     -0.396672      0.013091
  H       5.525943     -2.322799      0.004102
  H       8.271856      1.833745      0.010722
  H       8.009548     -2.474342      0.009748
  H       5.789580      1.985339      0.005076
49
Coordinates from ORCA-job opt_EPRII E -928.973980872595
  C       4.056806     -0.075107      0.000987
  C       2.831075     -0.015247     -0.001957
  C      -2.856691      0.022164     -0.006721
  C       1.407980      0.029084     -0.002965
  C       0.697313      1.290948     -0.002944
  C      -0.728576      1.222563     -0.004345
  C      -1.420228      0.007051     -0.005439
  C      -0.710323     -1.238279     -0.005176
  C       0.687725     -1.185075     -0.004073
  H      -1.303318      2.142043     -0.004518
  H       1.259191     -2.106067     -0.003982
  C       1.381871      2.529466     -0.001368
  H       2.468255      2.499461     -0.000331
  C       0.717227      3.880714     -0.001279
  H       0.060018      3.977204     -0.880187
  H       0.051519      3.973005      0.871605
  C       1.718912      5.050707      0.006459
  H       2.365529      4.963269      0.888934
  H       2.374398      4.967475     -0.869874
  C       1.030429      6.425729      0.006250
  H       0.390878      6.546562      0.887945
  H       0.399677      6.550691     -0.881193
  C      -1.485074     -2.545236     -0.006098
  H      -2.155575     -2.548390      0.864305
  H      -2.153450     -2.548476     -0.878141
  C      -0.652575     -3.836931     -0.004992
  H       0.004232     -3.859373     -0.884856
  H       0.002221     -3.859116      0.876378
  C      -1.531601     -5.100749     -0.005804
  H      -2.190977     -5.083335      0.872096
  H      -2.188855     -5.083689     -0.885299
  C      -0.710777     -6.402135     -0.004548
  H      -0.067506     -6.460952      0.880721
  H      -0.065250     -6.461228     -0.888154
  C      -4.077022      0.029148     -0.008538
  H      -5.142881      0.040087     -0.010481
  H       1.764520      7.237891      0.011791
  H      -1.360545     -7.283423     -0.005233
  C       8.306013     -0.328427      0.010363
  C       7.674297      0.927139      0.009003
  C       6.277793      1.016520      0.005896
  C       5.485015     -0.157854      0.004124
  C       6.130668     -1.419396      0.005474
  C       7.527661     -1.498777      0.008580
  H       9.390693     -0.394124      0.012778
  H       5.527121     -2.322182      0.004079
  H       8.270944      1.835618      0.010356
  H       8.010834     -2.472385      0.009608
  H       5.788588      1.986033      0.004828
