49
Coordinates from ORCA-job opt E -928.902320804590
  C       4.056606     -0.083885      0.001340
  C       2.834131     -0.022584     -0.001991
  C      -2.844474      0.021416     -0.003157
  C       1.413990      0.023414     -0.002480
  C       0.705203      1.283606     -0.002002
  C      -0.716979      1.213022     -0.002166
  C      -1.410940      0.002984     -0.002915
  C      -0.702181     -1.239913     -0.003468
  C       0.692321     -1.186243     -0.003332
  H      -1.295057      2.137223     -0.001764
  H       1.266908     -2.112260     -0.003759
  C       1.385870      2.519460     -0.001435
  H       2.478940      2.487759     -0.001660
  C       0.724508      3.865171     -0.000848
  H       0.053448      3.958997     -0.879854
  H       0.051480      3.957323      0.876812
  C       1.717495      5.034226      0.001357
  H       2.375731      4.945234      0.885342
  H       2.377519      4.947080     -0.881486
  C       1.034517      6.402751      0.002096
  H       0.392365      6.530045      0.890965
  H       0.394079      6.531870     -0.887744
  C      -1.475825     -2.542283     -0.004047
  H      -2.154051     -2.542044      0.870279
  H      -2.155231     -2.540608     -0.877436
  C      -0.656113     -3.834963     -0.005550
  H       0.007182     -3.858056     -0.890364
  H       0.007541     -3.859866      0.878949
  C      -1.535229     -5.090971     -0.006562
  H      -2.201509     -5.069825      0.876288
  H      -2.201758     -5.068247     -0.889184
  C      -0.727517     -6.390715     -0.007820
  H      -0.076985     -6.459617      0.881483
  H      -0.077300     -6.458082     -0.897471
  C      -4.060267      0.041397     -0.004577
  H      -5.132582      0.064681     -0.007401
  H       1.772383      7.220977      0.003655
  H      -1.385175     -7.274915     -0.008473
  C       8.295215     -0.306468      0.012726
  C       7.656499      0.939059      0.015688
  C       6.264623      1.017702      0.011911
  C       5.481131     -0.158199      0.005080
  C       6.136523     -1.409508      0.002014
  C       7.529084     -1.477808      0.005831
  H       9.386448     -0.364569      0.015808
  H       5.538350     -2.322645     -0.003424
  H       8.248688      1.857412      0.021089
  H       8.022056     -2.453043      0.003392
  H       5.766520      1.989128      0.014327
49
Coordinates from ORCA-job opt E -928.902323082745
  C       4.056038     -0.082264      0.001194
  C       2.833722     -0.019270     -0.002098
  C      -2.844825      0.020996     -0.003279
  C       1.413641      0.026919     -0.002617
  C       0.704039      1.286741     -0.002099
  C      -0.718277      1.214839     -0.002291
  C      -1.411332      0.004186     -0.003117
  C      -0.701587     -1.238058     -0.003736
  C       0.692740     -1.183128     -0.003551
  H      -1.297514      2.138415     -0.001811
  H       1.268338     -2.108550     -0.004004
  C       1.383440      2.523258     -0.001338
  H       2.476163      2.492579     -0.001452
  C       0.721044      3.868643     -0.000553
  H       0.050167      3.962059     -0.879562
  H       0.047943      3.959985      0.876947
  C       1.713456      5.038663      0.002084
  H       2.371542      4.950099      0.885822
  H       2.373655      4.952323     -0.880298
  C       1.029401      6.406935      0.002988
  H       0.387161      6.533544      0.891724
  H       0.389224      6.535756     -0.886918
  C      -1.473386     -2.541248     -0.004433
  H      -2.151567     -2.541749      0.869401
  H      -2.152440     -2.540330     -0.877570
  C      -0.651867     -3.832968     -0.005812
  H       0.011383     -3.855320     -0.890173
  H       0.011577     -3.857060      0.878360
  C      -1.529589     -5.090332     -0.006889
  H      -2.195868     -5.069734      0.875475
  H      -2.195921     -5.068205     -0.889176
  C      -0.720372     -6.389571     -0.008033
  H      -0.070039     -6.457569      0.881231
  H      -0.070108     -6.456048     -0.897462
  C      -4.060654      0.039448     -0.004583
  H      -5.132867      0.061200     -0.007175
  H       1.766529      7.225939      0.004868
  H      -1.377075     -7.274680     -0.008768
  C       8.293833     -0.317774      0.012522
  C       7.659300      0.929909      0.012587
  C       6.267581      1.012978      0.008817
  C       5.480370     -0.160371      0.004882
  C       6.131682     -1.414023      0.004867
  C       7.524034     -1.486781      0.008654
  H       9.384588     -0.379223      0.015509
  H       5.530270     -2.325054      0.001835
  H       8.254480      1.846309      0.015615
  H       8.013710     -2.463634      0.008576
  H       5.772413      1.985842      0.008904
49
Coordinates from ORCA-job opt E -928.902322372553
  C       4.055644     -0.078927      0.001262
  C       2.833464     -0.013857     -0.001954
  C      -2.845031      0.020246     -0.003833
  C       1.413413      0.031926     -0.002537
  C       0.702499      1.290951     -0.002054
  C      -0.719875      1.217155     -0.002505
  C      -1.411569      0.005669     -0.003447
  C      -0.700393     -1.235722     -0.003983
  C       0.693794     -1.178895     -0.003597
  H      -1.300698      2.139776     -0.002111
  H       1.270950     -2.103344     -0.004017
  C       1.380200      2.528273     -0.001076
  H       2.472893      2.498976     -0.000895
  C       0.716340      3.873076     -0.000344
  H       0.045886      3.965877     -0.879642
  H       0.042930      3.963489      0.876912
  C       1.707884      5.044099      0.002939
  H       2.365649      4.956177      0.886827
  H       2.368616      4.958667     -0.878979
  C       1.022275      6.411790      0.003714
  H       0.379635      6.537547      0.892218
  H       0.382591      6.540039     -0.886566
  C      -1.469960     -2.540099     -0.004876
  H      -2.148477     -2.541524      0.868522
  H      -2.148624     -2.540270     -0.878147
  C      -0.646321     -3.830583     -0.005825
  H       0.017156     -3.852228     -0.889841
  H       0.016842     -3.853697      0.878391
  C      -1.522594     -5.089256     -0.006999
  H      -2.189144     -5.069163      0.874991
  H      -2.188650     -5.067876     -0.889332
  C      -0.711614     -6.387670     -0.007723
  H      -0.061636     -6.454476      0.881794
  H      -0.061078     -6.453145     -0.896930
  C      -4.060897      0.036517     -0.005241
  H      -5.133130      0.056017     -0.007689
  H       1.758366      7.231773      0.006090
  H      -1.367162     -7.273684     -0.008593
  C       8.292180     -0.332941      0.012011
  C       7.663619      0.917739      0.010424
  C       6.272197      1.007200      0.006872
  C       5.479681     -0.162440      0.004851
  C       6.125128     -1.419342      0.006474
  C       7.517116     -1.498512      0.010028
  H       9.382578     -0.399225      0.014759
  H       5.519092     -2.327300      0.004920
  H       8.263082      1.831320      0.011940
  H       8.002096     -2.477686      0.011265
  H       5.781234      1.982182      0.005596
49
Coordinates from ORCA-job opt E -928.902321072708
  C       4.055539     -0.075661      0.001226
  C       2.833415     -0.009288     -0.001975
  C      -2.845042      0.019606     -0.004313
  C       1.413345      0.035620     -0.002708
  C       0.701320      1.293912     -0.002291
  C      -0.721004      1.218720     -0.002885
  C      -1.411575      0.006611     -0.003816
  C      -0.699254     -1.234166     -0.004203
  C       0.694855     -1.175915     -0.003749
  H      -1.302976      2.140642     -0.002601
  H       1.273203     -2.099578     -0.004050
  C       1.377873      2.531811     -0.001298
  H       2.470679      2.503476     -0.000994
  C       0.712966      3.876154     -0.000784
  H       0.042814      3.968428     -0.880373
  H       0.039281      3.966038      0.876318
  C       1.703763      5.047797      0.002830
  H       2.361283      4.960417      0.886990
  H       2.364925      4.962849     -0.878851
  C       1.017048      6.414960      0.003289
  H       0.374042      6.540216      0.891608
  H       0.377703      6.542652     -0.887325
  C      -1.467398     -2.539379     -0.005002
  H      -2.146233     -2.541285      0.868200
  H      -2.145851     -2.540478     -0.878495
  C      -0.642472     -3.829023     -0.005383
  H       0.021174     -3.850432     -0.889301
  H       0.020558     -3.851313      0.878977
  C      -1.517798     -5.088418     -0.006306
  H      -2.184530     -5.068464      0.875587
  H      -2.183723     -5.067745     -0.888791
  C      -0.705689     -6.386136     -0.006468
  H      -0.055902     -6.451951      0.883270
  H      -0.054965     -6.451151     -0.895578
  C      -4.060929      0.034274     -0.005722
  H      -5.133196      0.052025     -0.007926
  H       1.752422      7.235592      0.005930
  H      -1.360467     -7.272691     -0.007209
  C       8.291064     -0.343961      0.011907
  C       7.667063      0.908962      0.013876
  C       6.275930      1.003388      0.010329
  C       5.479334     -0.163373      0.004746
  C       6.120266     -1.422686      0.002859
  C       7.511933     -1.506817      0.006396
  H       9.381266     -0.414008      0.014652
  H       5.510712     -2.328255     -0.001429
  H       8.269819      1.820360      0.018196
  H       7.993339     -2.487757      0.004861
  H       5.788248      1.980039      0.011839
49
Coordinates from ORCA-job opt E -928.902320216432
  C       4.055651     -0.073547      0.001259
  C       2.833542     -0.006600     -0.001853
  C      -2.844938      0.019403     -0.004605
  C       1.413420      0.037578     -0.002650
  C       0.700732      1.295437     -0.002274
  C      -0.721501      1.219563     -0.002939
  C      -1.411453      0.007143     -0.003953
  C      -0.698523     -1.233355     -0.004352
  C       0.695582     -1.174421     -0.003778
  H      -1.303965      2.141141     -0.002676
  H       1.274536     -2.097754     -0.004091
  C       1.376735      2.533606     -0.001170
  H       2.469590      2.505778     -0.000846
  C       0.711209      3.877604     -0.000569
  H       0.041247      3.969721     -0.880342
  H       0.037271      3.967005      0.876408
  C       1.701375      5.049653      0.003518
  H       2.358700      4.962416      0.887902
  H       2.362825      4.965169     -0.878056
  C       1.013980      6.416414      0.004035
  H       0.370653      6.541162      0.892218
  H       0.374821      6.543928     -0.886762
  C      -1.466096     -2.538946     -0.005338
  H      -2.145195     -2.541193      0.867755
  H      -2.144376     -2.540390     -0.879069
  C      -0.640631     -3.828188     -0.005524
  H       0.023196     -3.849353     -0.889420
  H       0.022302     -3.850153      0.879024
  C      -1.515380     -5.087922     -0.006538
  H      -2.182257     -5.068236      0.875347
  H      -2.181205     -5.067554     -0.889201
  C      -0.702663     -6.385165     -0.006558
  H      -0.052972     -6.450617      0.883324
  H      -0.051766     -6.449835     -0.895614
  C      -4.060832      0.033276     -0.006062
  H      -5.133143      0.050044     -0.008099
  H       1.748932      7.237402      0.007037
  H      -1.357003     -7.272006     -0.007390
  C       8.290611     -0.349909      0.011621
  C       7.669126      0.904242      0.011288
  C       6.278191      1.001489      0.007860
  C       5.479290     -0.163666      0.004675
  C       6.117697     -1.424276      0.005036
  C       7.509166     -1.511211      0.008484
  H       9.380725     -0.422104      0.014310
  H       5.506205     -2.328550      0.002590
  H       8.273734      1.814420      0.013750
  H       7.988600     -2.493123      0.008723
  H       5.792435      1.979098      0.007626
