%chk=g09BDE
%NProcShared=8
#P bmk/6-31+g ! ASE formatted method and basis
freq

Gaussian input prepared by ASE

0 1
C                -6.2867830000        0.3398780000       -0.0003830000
C                -2.0404970000        0.1338390000        0.0080640000
C                -2.6823890000        1.4061830000        0.0118570000
C                -4.0822590000        1.4306360000        0.0092900000
C                -4.8550480000        0.2445100000        0.0028370000
C                -4.2135860000       -1.0278480000       -0.0007390000
C                -2.8138230000       -1.0524130000        0.0021040000
H                -4.6090090000        2.3808860000        0.0119060000
H                -2.2874890000       -2.0028740000       -0.0005910000
C                -1.8389470000        2.6765920000        0.0182670000
H                -1.1713410000        2.6558490000       -0.8590950000
H                -1.1740600000        2.6487670000        0.8974840000
C                -2.6195930000        4.0068850000        0.0224470000
H                -3.2715380000        4.0634630000       -0.8642320000
H                -3.2734230000        4.0567280000        0.9081620000
C                -1.6729790000        5.2288580000        0.0281150000
H                -1.0184310000        5.1750580000        0.9127180000
H                -1.0166040000        5.1819020000       -0.8555250000
C                -2.4415330000        6.5682280000        0.0325240000
H                -3.0845650000        6.6450650000        0.9211530000
H                -3.0825500000        6.6520820000       -0.8569180000
C                -5.0578440000       -2.2977770000       -0.0074880000
H                -5.7261620000       -2.2763120000        0.8693370000
H                -5.7220030000       -2.2698120000       -0.8872860000
C                -4.2786760000       -3.6289400000       -0.0105390000
H                -3.6246860000       -3.6802040000       -0.8960300000
H                -3.6269940000       -3.6855990000        0.8763140000
C                -5.2272680000       -4.8494430000       -0.0155960000
H                -5.8837110000       -4.8006690000        0.8679520000
H                -5.8814510000       -4.7950800000       -0.9004940000
C                -4.4615030000       -6.1904310000       -0.0188690000
H                -3.8209450000       -6.2750930000        0.8708050000
H                -3.8184320000       -6.2693010000       -0.9072740000
C                -7.5038300000        0.4227990000       -0.0037000000
H                -1.7527140000        7.4237810000        0.0366790000
H                -5.1521900000       -7.0444790000       -0.0226270000
C                -8.9357450000        0.5308860000       -0.0093300000
C                -9.5580800000        1.8034880000        0.0044020000
C               -10.9558830000        1.9054960000       -0.0018690000
C               -11.7524590000        0.7466270000       -0.0219280000
C               -11.1418340000       -0.5204650000       -0.0354900000
C                -9.7446970000       -0.6315980000       -0.0291870000
H               -12.8372430000        0.8294050000       -0.0267730000
H               -11.7535170000       -1.4201200000       -0.0511060000
H                -8.9378220000        2.6967090000        0.0199500000
H                -9.2680390000       -1.6091560000       -0.0395540000
H               -11.4232980000        2.8880390000        0.0086080000
C                -0.6091150000        0.0394570000        0.0093390000
C                 0.6091930000       -0.0378350000        0.0091770000
C                 6.2868030000       -0.3398590000       -0.0004170000
C                 2.0405530000       -0.1325030000        0.0079690000
C                 2.6821190000       -1.4050700000        0.0118560000
C                 4.0819460000       -1.4299250000        0.0093760000
C                 4.8551000000       -0.2440090000        0.0029410000
C                 4.2139940000        1.0285170000       -0.0007010000
C                 2.8142100000        1.0534720000        0.0020650000
H                 4.6084340000       -2.3803320000        0.0119670000
H                 2.2881940000        2.0041160000       -0.0006610000
C                 1.8384270000       -2.6752630000        0.0181850000
H                 1.1710010000       -2.6544330000       -0.8593110000
H                 1.1733160000       -2.6473300000        0.8972380000
C                 2.6188790000       -4.0056590000        0.0225800000
H                 3.2711270000       -4.0622740000       -0.8638800000
H                 3.2723710000       -4.0557050000        0.9085260000
C                 1.6720550000       -5.2274840000        0.0278700000
H                 1.0172890000       -5.1736480000        0.9123080000
H                 1.0159330000       -5.1803340000       -0.8559460000
C                 2.4404040000       -6.5669690000        0.0323670000
H                 3.0831640000       -6.6439890000        0.9211780000
H                 3.0816720000       -6.6508380000       -0.8568920000
C                 5.0584790000        2.2982940000       -0.0074780000
H                 5.7269550000        2.2765970000        0.8692150000
H                 5.7225090000        2.2703190000       -0.8873760000
C                 4.2795330000        3.6295820000       -0.0102550000
H                 3.6255260000        3.6811740000       -0.8957100000
H                 3.6279400000        3.6862150000        0.8766690000
C                 5.2283180000        4.8499370000       -0.0151600000
H                 5.8847780000        4.8009380000        0.8683610000
H                 5.8824640000        4.7956270000       -0.9000890000
C                 4.4627100000        6.1910180000       -0.0182000000
H                 3.8221020000        6.2755610000        0.8714530000
H                 3.8196910000        6.2701350000       -0.9066210000
C                 7.5037810000       -0.4238070000       -0.0040190000
H                 1.7514620000       -7.4224250000        0.0362410000
H                 5.1534810000        7.0449980000       -0.0217420000
C                 8.9356530000       -0.5325380000       -0.0093930000
C                 9.5573460000       -1.8054530000        0.0062420000
C                10.9550870000       -1.9081720000       -0.0000310000
C                11.7522620000       -0.7497250000       -0.0220000000
C                11.1422910000        0.5176290000       -0.0374650000
C                 9.7451820000        0.6294910000       -0.0311630000
H                12.8370010000       -0.8331050000       -0.0268470000
H                11.7544020000        1.4169660000       -0.0545970000
H                 8.9366080000       -2.6983110000        0.0232580000
H                 9.2690470000        1.6072850000       -0.0430070000
H                11.4220210000       -2.8909270000        0.0118860000


