47
Coordinates from ORCA-job opt E -852.736233123160
  C       2.818573     -0.051745      0.000063
  C      -1.393659     -0.000000      0.000000
  C      -0.714960     -1.237147      0.000202
  C       0.672358     -1.202059     -0.000021
  C       1.393659     -0.000000     -0.000000
  C       0.714822      1.237125      0.000000
  C      -0.672385      1.202227      0.000269
  H       1.234707     -2.125148     -0.000540
  H      -1.234543      2.125420      0.000154
  C      -1.500316     -2.530051      0.003530
  H      -2.190436     -2.514394     -0.847378
  H      -2.148685     -2.534708      0.887147
  C      -0.693094     -3.826402     -0.030390
  H      -0.055703     -3.845232     -0.921414
  H      -0.018245     -3.868841      0.831866
  C      -1.582505     -5.071453     -0.026825
  H      -2.223927     -5.053486      0.861044
  H      -2.257870     -5.035471     -0.888769
  C      -0.790682     -6.377281     -0.055735
  H      -0.133172     -6.461644      0.813805
  H      -0.163563     -6.440829     -0.949216
  C       1.500315      2.530072     -0.001521
  H       2.169550      2.525160      0.866254
  H       2.169751      2.521989     -0.869080
  C       0.693122      3.826647     -0.004282
  H       0.035552      3.854994     -0.880382
  H       0.038107      3.859943      0.873468
  C       1.582598      5.071538     -0.009791
  H       2.244242      5.047094      0.863125
  H       2.238133      5.042205     -0.886993
  C       0.790535      6.377630     -0.010598
  H       0.152401      6.454821      0.873944
  H       0.143909      6.448638     -0.889462
  C       4.021148     -0.107044     -0.002824
  H      -1.454567     -7.243820     -0.054558
  H       1.454541      7.244042     -0.016837
  C       5.451148     -0.107044     -0.002824
  C       6.129847     -1.344191     -0.002622
  C       7.517165     -1.309103     -0.002845
  C       8.238465     -0.107044     -0.002824
  C       7.559629      1.130082     -0.002824
  C       6.172422      1.095183     -0.002556
  H       9.300699     -0.107044     -0.002824
  H       8.073497      2.019342     -0.002897
  H       5.615979     -2.233451     -0.002550
  H       5.645960      2.036451     -0.002442
  H       8.043626     -2.250371     -0.002959
47
Coordinates from ORCA-job opt E -852.749625597247
  C       2.836320     -0.035953     -0.000271
  C      -1.351541     -0.013119     -0.002281
  C      -0.706521     -1.253660     -0.000938
  C       0.689717     -1.210198     -0.000260
  C       1.407306      0.005188     -0.000406
  C       0.718040      1.246337     -0.001064
  C      -0.679697      1.202165     -0.001953
  H       1.260580     -2.138668     -0.000232
  H      -1.261787      2.126667     -0.002698
  C      -1.509787     -2.545597      0.002000
  H      -2.203059     -2.522352     -0.858326
  H      -2.164597     -2.542085      0.892472
  C      -0.718636     -3.855673     -0.029227
  H      -0.073676     -3.882827     -0.926102
  H      -0.040766     -3.906106      0.842066
  C      -1.625090     -5.092227     -0.027330
  H      -2.274577     -5.065680      0.866552
  H      -2.303796     -5.047725     -0.898583
  C      -0.846637     -6.409913     -0.053591
  H      -0.186348     -6.502274      0.825205
  H      -0.212169     -6.481829     -0.953059
  C       1.496236      2.548354     -0.001643
  H       2.170214      2.546720      0.874082
  H       2.172205      2.544187     -0.875834
  C       0.680091      3.843233     -0.004479
  H       0.017631      3.868074     -0.888629
  H       0.018325      3.872149      0.880070
  C       1.563742      5.095998     -0.008136
  H       2.230395      5.074345      0.873206
  H       2.226619      5.070895     -0.892205
  C       0.761041      6.399320     -0.008877
  H       0.115300      6.472015      0.882455
  H       0.109129      6.467253     -0.896096
  C       4.054962     -0.086617     -0.003115
  H      -1.525621     -7.276901     -0.053778
  H       1.424036      7.278563     -0.013532
  C       5.486676     -0.094166     -0.003170
  C       6.181409     -1.325697     -0.002907
  C       7.576211     -1.307898     -0.003188
  C       8.292899     -0.108433     -0.003582
  C       7.607290      1.119162     -0.003783
  C       6.212517      1.108794     -0.003482
  H       9.383763     -0.112415     -0.003757
  H       8.154369      2.056803     -0.004158
  H       5.635470     -2.263027     -0.002603
  H       5.677832      2.061178     -0.003640
  H       8.112127     -2.260761     -0.003106
47
Coordinates from ORCA-job opt E -852.751094233636
  C       2.837770     -0.024967     -0.001175
  C      -1.325907     -0.017241     -0.004612
  C      -0.704567     -1.260372     -0.002391
  C       0.695997     -1.211824     -0.001005
  C       1.408490      0.009832     -0.001366
  C       0.716301      1.252225     -0.002588
  C      -0.687566      1.206280     -0.004370
  H       1.271106     -2.139741     -0.000412
  H      -1.275654      2.127648     -0.005676
  C      -1.513870     -2.548857     -0.000031
  H      -2.203769     -2.523648     -0.864744
  H      -2.170827     -2.541263      0.890479
  C      -0.722995     -3.859384     -0.026989
  H      -0.072859     -3.886369     -0.922079
  H      -0.047318     -3.908230      0.848101
  C      -1.628653     -5.096721     -0.028023
  H      -2.283269     -5.069866      0.864045
  H      -2.305003     -5.052819     -0.903085
  C      -0.848673     -6.413864     -0.050218
  H      -0.190716     -6.505248      0.832129
  H      -0.209432     -6.486083     -0.947947
  C       1.493003      2.555378     -0.002213
  H       2.167540      2.553597      0.875065
  H       2.170753      2.552048     -0.877019
  C       0.674600      3.849273     -0.004691
  H       0.011823      3.873346     -0.890547
  H       0.010697      3.875847      0.880272
  C       1.555630      5.104282     -0.006071
  H       2.222404      5.082607      0.877075
  H       2.221058      5.081135     -0.890197
  C       0.749783      6.405916     -0.006452
  H       0.101354      6.476264      0.884835
  H       0.097946      6.473669     -0.895465
  C       4.059736     -0.073074     -0.003942
  H      -1.526705     -7.283226     -0.052542
  H       1.410429      7.288538     -0.009006
  C       5.490085     -0.090274     -0.004032
  C       6.190032     -1.318375     -0.003925
  C       7.585974     -1.320397     -0.004214
  C       8.304601     -0.122630     -0.004690
  C       7.619198      1.099951     -0.004853
  C       6.223378      1.112252     -0.004573
  H       9.399008     -0.133476     -0.004973
  H       8.175723      2.042157     -0.005268
  H       5.632767     -2.258797     -0.003627
  H       5.689844      2.066228     -0.004781
  H       8.118898     -2.276123     -0.004127
47
Coordinates from ORCA-job opt E -852.751381781217
  C       2.834570     -0.016634     -0.002554
  C      -1.313667     -0.016852     -0.006267
  C      -0.705064     -1.262429     -0.004185
  C       0.697881     -1.210058     -0.002666
  C       1.405505      0.014628     -0.002914
  C       0.713292      1.257056     -0.004053
  C      -0.694107      1.212518     -0.005957
  H       1.276645     -2.135694     -0.001865
  H      -1.282151      2.132580     -0.007332
  C      -1.514954     -2.548849     -0.002327
  H      -2.200854     -2.524186     -0.869742
  H      -2.173351     -2.539278      0.886596
  C      -0.719831     -3.856632     -0.024982
  H      -0.065853     -3.881396     -0.917061
  H      -0.047130     -3.901270      0.852334
  C      -1.620190     -5.097453     -0.028389
  H      -2.278585     -5.072404      0.860695
  H      -2.293508     -5.056766     -0.905664
  C      -0.834783     -6.411031     -0.046526
  H      -0.179525     -6.498893      0.837888
  H      -0.191927     -6.481532     -0.941528
  C       1.490753      2.559178     -0.003216
  H       2.165573      2.556489      0.873641
  H       2.168518      2.556025     -0.877803
  C       0.671724      3.852425     -0.004683
  H       0.009077      3.876505     -0.890426
  H       0.007426      3.877318      0.879821
  C       1.551200      5.108274     -0.004453
  H       2.217602      5.086020      0.878676
  H       2.217399      5.086370     -0.887747
  C       0.744135      6.408717     -0.004028
  H       0.094698      6.477422      0.886383
  H       0.092925      6.476933     -0.893189
  C       4.056430     -0.062985     -0.005124
  H      -1.508281     -7.283562     -0.050439
  H       1.402838      7.292457     -0.004932
  C       5.485101     -0.089611     -0.005111
  C       6.183137     -1.317447     -0.005422
  C       7.578223     -1.336123     -0.005496
  C       8.302601     -0.139972     -0.005322
  C       7.621101      1.082306     -0.005042
  C       6.226271      1.111401     -0.004978
  H       9.396284     -0.158452     -0.005436
  H       8.182938      2.022261     -0.004918
  H       5.617394     -2.253630     -0.005617
  H       5.695849      2.066102     -0.004822
  H       8.104821     -2.294244     -0.005732
47
Coordinates from ORCA-job opt E -852.751409568678
  C       2.832727     -0.013238     -0.003345
  C      -1.312778     -0.015749     -0.007179
  C      -0.705472     -1.262004     -0.005502
  C       0.697952     -1.208101     -0.003946
  C       1.403516      0.017207     -0.003844
  C       0.711547      1.259154     -0.004748
  C      -0.696570      1.215442     -0.006644
  H       1.278661     -2.132272     -0.003246
  H      -1.283035      2.135868     -0.007825
  C      -1.514134     -2.548419     -0.004188
  H      -2.197812     -2.524951     -0.873046
  H      -2.174017     -2.538380      0.883271
  C      -0.716478     -3.854668     -0.024031
  H      -0.060564     -3.878554     -0.914393
  H      -0.045700     -3.896770      0.854552
  C      -1.614053     -5.097364     -0.028415
  H      -2.274370     -5.073049      0.858975
  H      -2.285548     -5.058702     -0.906879
  C      -0.825811     -6.409082     -0.043944
  H      -0.172122     -6.494752      0.841583
  H      -0.181125     -6.478931     -0.937427
  C       1.489441      2.560953     -0.003728
  H       2.164551      2.557920      0.872610
  H       2.166928      2.558097     -0.878230
  C       0.670208      3.853990     -0.004485
  H       0.007639      3.878255     -0.890005
  H       0.005996      3.878115      0.879823
  C       1.549081      5.110155     -0.003563
  H       2.215261      5.087629      0.879435
  H       2.215438      5.088785     -0.886453
  C       0.741597      6.410126     -0.002737
  H       0.091801      6.478094      0.887211
  H       0.090787      6.478626     -0.891907
  C       4.054089     -0.058514     -0.005749
  H      -1.497011     -7.283101     -0.048407
  H       1.399565      7.294146     -0.002851
  C       5.482275     -0.089875     -0.005631
  C       6.176665     -1.319242     -0.006729
  C       7.571148     -1.344245     -0.006713
  C       8.299730     -0.149626     -0.005672
  C       7.621810      1.074538     -0.004638
  C       6.227644      1.109442     -0.004656
  H       9.392533     -0.172307     -0.005707
  H       8.185465      2.011619     -0.003842
  H       5.607445     -2.251611     -0.007607
  H       5.699257      2.064851     -0.003901
  H       8.093990     -2.303901     -0.007561
47
Coordinates from ORCA-job opt E -852.751416390821
  C       2.832091     -0.010912     -0.004222
  C      -1.313216     -0.015094     -0.008123
  C      -0.705227     -1.261285     -0.006938
  C       0.698255     -1.206524     -0.005374
  C       1.402654      0.019104     -0.004876
  C       0.710493      1.260503     -0.005437
  C      -0.697765      1.216769     -0.007278
  H       1.280332     -2.129722     -0.004870
  H      -1.283072      2.137692     -0.008150
  C      -1.512920     -2.548038     -0.006218
  H      -2.194739     -2.525737     -0.876468
  H      -2.174570     -2.537577      0.879800
  C      -0.713919     -3.853522     -0.023362
  H      -0.056456     -3.877447     -0.912464
  H      -0.044737     -3.893765      0.856401
  C      -1.610117     -5.097160     -0.028158
  H      -2.271937     -5.072772      0.858011
  H      -2.280181     -5.059939     -0.907668
  C      -0.820433     -6.407959     -0.041276
  H      -0.167961     -6.492034      0.845212
  H      -0.174368     -6.477959     -0.933666
  C       1.488166      2.562524     -0.004199
  H       2.163656      2.559399      0.871733
  H       2.165363      2.560251     -0.878815
  C       0.668506      3.855290     -0.004199
  H       0.005895      3.879727     -0.889587
  H       0.004428      3.878684      0.880129
  C       1.546809      5.111827     -0.002740
  H       2.212894      5.089187      0.880226
  H       2.213270      5.090999     -0.885463
  C       0.738796      6.411380     -0.001542
  H       0.088700      6.478654      0.888151
  H       0.088247      6.480044     -0.890801
  C       4.053273     -0.054828     -0.006430
  H      -1.490493     -7.282754     -0.045861
  H       1.396223      7.295711     -0.001020
  C       5.481323     -0.089809     -0.006185
  C       6.172180     -1.321003     -0.008261
  C       7.566397     -1.349833     -0.008077
  C       8.298395     -0.156958     -0.005878
  C       7.623830      1.069204     -0.003846
  C       6.229973      1.107675     -0.004022
  H       9.390807     -0.182943     -0.005766
  H       8.189174      2.004194     -0.002120
  H       5.600306     -2.250743     -0.010046
  H       5.703312      2.063931     -0.002460
  H       8.086510     -2.310828     -0.009711
47
Coordinates from ORCA-job opt E -852.751419915492
  C       2.832011     -0.008801     -0.005226
  C      -1.313565     -0.014757     -0.009353
  C      -0.704592     -1.260611     -0.008734
  C       0.698827     -1.205217     -0.007107
  C       1.402394      0.020778     -0.006075
  C       0.709746      1.261651     -0.006230
  C      -0.698536      1.217420     -0.008077
  H       1.282016     -2.127679     -0.006868
  H      -1.283079      2.138762     -0.008582
  C      -1.511594     -2.547757     -0.008792
  H      -2.191250     -2.526693     -0.880764
  H      -2.175517     -2.536683      0.875492
  C      -0.711782     -3.852809     -0.022701
  H      -0.052644     -3.877399     -0.910522
  H      -0.044308     -3.891263      0.858408
  C      -1.607195     -5.096990     -0.027648
  H      -2.270563     -5.072009      0.857330
  H      -2.275783     -5.061124     -0.908314
  C      -0.816666     -6.407273     -0.037994
  H      -0.165445     -6.489823      0.849542
  H      -0.169219     -6.477961     -0.929314
  C       1.486822      2.564116     -0.004653
  H       2.162696      2.560948      0.870955
  H       2.163750      2.562592     -0.879458
  C       0.666606      3.856539     -0.003835
  H       0.003945      3.881188     -0.889166
  H       0.002622      3.879146      0.880566
  C       1.544335      5.113479     -0.001768
  H       2.210294      5.090760      0.881271
  H       2.210969      5.093236     -0.884355
  C       0.735727      6.412617     -0.000237
  H       0.085237      6.479157      0.889211
  H       0.085483      6.481436     -0.889691
  C       4.053202     -0.050735     -0.007179
  H      -1.486068     -7.282553     -0.042474
  H       1.392661      7.297297      0.000990
  C       5.481194     -0.089209     -0.006773
  C       6.168532     -1.322369     -0.010370
  C       7.562630     -1.354557     -0.010005
  C       8.297860     -0.163635     -0.006108
  C       7.626725      1.064506     -0.002569
  C       6.233021      1.106273     -0.002914
  H       9.390126     -0.192815     -0.005845
  H       8.194114      1.997859      0.000502
  H       5.593970     -2.250082     -0.013494
  H       5.708163      2.063521     -0.000142
  H       8.080273     -2.316877     -0.012843
47
Coordinates from ORCA-job opt E -852.751422437730
  C       2.832218     -0.006761     -0.006641
  C      -1.313724     -0.014681     -0.011095
  C      -0.703704     -1.260064     -0.011249
  C       0.699576     -1.204142     -0.009546
  C       1.402511      0.022303     -0.007767
  C       0.709168      1.262695     -0.007332
  C      -0.699113      1.217644     -0.009193
  H       1.283690     -2.126028     -0.009704
  H      -1.283203      2.139308     -0.009176
  C      -1.510208     -2.547617     -0.012389
  H      -2.186901     -2.528063     -0.886746
  H      -2.177280     -2.535569      0.869526
  C      -0.709882     -3.852415     -0.021891
  H      -0.048665     -3.878427     -0.908154
  H      -0.044501     -3.888742      0.860907
  C      -1.604832     -5.096920     -0.026660
  H      -2.269996     -5.070765      0.856963
  H      -2.271689     -5.062659     -0.908721
  C      -0.813798     -6.406918     -0.033400
  H      -0.164029     -6.487659      0.855389
  H      -0.164794     -6.478919     -0.923507
  C       1.485405      2.565704     -0.005226
  H       2.161707      2.562404      0.870076
  H       2.162024      2.565109     -0.880303
  C       0.664572      3.857738     -0.003375
  H       0.001838      3.882752     -0.888669
  H       0.000679      3.879443      0.881141
  C       1.541763      5.115073     -0.000536
  H       2.207546      5.092215      0.882655
  H       2.208640      5.095486     -0.882979
  C       0.732565      6.413827      0.001369
  H       0.081568      6.479548      0.890533
  H       0.082722      6.482899     -0.888381
  C       4.053548     -0.045560     -0.008207
  H      -1.482818     -7.282515     -0.037459
  H       1.389062      7.298851      0.003469
  C       5.481494     -0.087769     -0.007571
  C       6.165057     -1.323121     -0.013853
  C       7.559096     -1.358835     -0.013199
  C       8.297732     -0.170155     -0.006343
  C       7.630368      1.060059     -0.000119
  C       6.236742      1.105430     -0.000731
  H       9.389970     -0.202764     -0.005842
  H       8.200303      1.991920      0.005310
  H       5.587526     -2.249045     -0.019312
  H       5.714009      2.063888      0.004189
  H       8.074186     -2.322578     -0.018164
47
Coordinates from ORCA-job opt E -852.751423292447
  C       2.832441     -0.006401     -0.007548
  C      -1.313633     -0.014898     -0.012262
  C      -0.703335     -1.260102     -0.012926
  C       0.699853     -1.204132     -0.011166
  C       1.402807      0.022474     -0.008859
  C       0.709164      1.262801     -0.008020
  C      -0.699108      1.217343     -0.009914
  H       1.284010     -2.126020     -0.011619
  H      -1.283322      2.139001     -0.009552
  C      -1.509866     -2.547749     -0.014817
  H      -2.184526     -2.529030     -0.890806
  H      -2.179060     -2.534919      0.865503
  C      -0.709624     -3.852617     -0.021376
  H      -0.047187     -3.879976     -0.906728
  H      -0.045443     -3.887757      0.862405
  C      -1.604693     -5.097047     -0.025712
  H      -2.270764     -5.069861      0.857228
  H      -2.270646     -5.063685     -0.908522
  C      -0.813783     -6.407147     -0.030230
  H      -0.164758     -6.486882      0.859220
  H      -0.164033     -6.480284     -0.919728
  C       1.485042      2.565983     -0.005519
  H       2.161474      2.562489      0.869715
  H       2.161553      2.565804     -0.880718
  C       0.664034      3.857898     -0.003165
  H       0.001290      3.883206     -0.888474
  H       0.000137      3.879241      0.881386
  C       1.541151      5.115303      0.000104
  H       2.206771      5.092321      0.883443
  H       2.208206      5.095945     -0.882240
  C       0.731848      6.414009      0.002106
  H       0.080544      6.479435      0.891095
  H       0.082287      6.483280     -0.887862
  C       4.053915     -0.042717     -0.008822
  H      -1.482913     -7.282690     -0.033782
  H       1.388306      7.299089      0.004673
  C       5.481846     -0.086251     -0.008025
  C       6.164042     -1.322443     -0.017109
  C       7.558091     -1.359472     -0.016269
  C       8.297955     -0.171689     -0.006450
  C       7.632013      1.059229      0.002555
  C       6.238362      1.106024      0.001780
  H       9.390252     -0.205548     -0.005798
  H       8.203130      1.990668      0.010340
  H       5.585399     -2.247948     -0.024918
  H       5.716629      2.065056      0.008919
  H       8.072289     -2.323732     -0.023449
47
Coordinates from ORCA-job opt E -852.751423683812
  C       2.832555     -0.007076     -0.008095
  C      -1.313497     -0.015116     -0.012872
  C      -0.703416     -1.260389     -0.013943
  C       0.699749     -1.204610     -0.012161
  C       1.403039      0.021918     -0.009480
  C       0.709456      1.262414     -0.008309
  C      -0.698798      1.216963     -0.010181
  H       1.283492     -2.126794     -0.012884
  H      -1.283339      2.138456     -0.009530
  C      -1.510185     -2.547944     -0.016431
  H      -2.183510     -2.529548     -0.893476
  H      -2.180708     -2.534611      0.862879
  C      -0.710213     -3.852977     -0.021273
  H      -0.047138     -3.881333     -0.906144
  H      -0.046634     -3.887573      0.863002
  C      -1.605558     -5.097224     -0.025224
  H      -2.271946     -5.069379      0.857472
  H      -2.271165     -5.064255     -0.908327
  C      -0.814938     -6.407520     -0.028677
  H      -0.166172     -6.486821      0.861015
  H      -0.164973     -6.481390     -0.917970
  C       1.485361      2.565508     -0.005459
  H       2.161743      2.561750      0.869830
  H       2.161886      2.565468     -0.880665
  C       0.664424      3.857459     -0.002856
  H       0.001691      3.883015     -0.888179
  H       0.000488      3.878690      0.881681
  C       1.541658      5.114789      0.000681
  H       2.207167      5.091661      0.884114
  H       2.208804      5.095503     -0.881611
  C       0.732465      6.413588      0.002755
  H       0.081035      6.478935      0.891672
  H       0.083052      6.483044     -0.887318
  C       4.054122     -0.041607     -0.009185
  H      -1.484315     -7.282892     -0.031824
  H       1.389047      7.298590      0.005556
  C       5.482055     -0.085029     -0.008313
  C       6.164317     -1.321223     -0.017649
  C       7.558378     -1.358292     -0.016711
  C       8.298216     -0.170529     -0.006574
  C       7.632263      1.060320      0.002671
  C       6.238559      1.107216      0.001834
  H       9.390566     -0.204333     -0.005846
  H       8.203600      1.991853      0.010736
  H       5.585737     -2.246961     -0.025754
  H       5.717110      2.066429      0.009216
  H       8.072617     -2.322542     -0.024104
