47
Coordinates from ORCA-job opt_cc-pVDZ E -852.752248186440
  C       2.831806     -0.006236     -0.008272
  C      -1.314139     -0.014773     -0.012929
  C      -0.703841     -1.259958     -0.014279
  C       0.699293     -1.203568     -0.012429
  C       1.402358      0.023007     -0.009542
  C       0.708612      1.263431     -0.008102
  C      -0.699666      1.217589     -0.009942
  H       1.283513     -2.125515     -0.013363
  H      -1.285093      2.138713     -0.009038
  C      -1.509688     -2.548043     -0.017242
  H      -2.182378     -2.530206     -0.894243
  H      -2.180594     -2.535322      0.861245
  C      -0.708611     -3.852555     -0.021718
  H      -0.045377     -3.880501     -0.905977
  H      -0.045441     -3.886600      0.862377
  C      -1.603186     -5.097748     -0.025923
  H      -2.269586     -5.070311      0.856270
  H      -2.268554     -5.065066     -0.908715
  C      -0.811642     -6.407882     -0.029365
  H      -0.163127     -6.486668      0.860305
  H      -0.161649     -6.481086     -0.918435
  C       1.483960      2.566701     -0.004836
  H       2.159953      2.562804      0.870276
  H       2.160515      2.566853     -0.879537
  C       0.662999      3.858831     -0.002137
  H       0.000591      3.884733     -0.887173
  H      -0.000881      3.880108      0.881917
  C       1.540854      5.116159      0.001806
  H       2.206133      5.092323      0.884894
  H       2.207958      5.096581     -0.880007
  C       0.732381      6.415841      0.004122
  H       0.081081      6.481192      0.892854
  H       0.083265      6.485731     -0.885860
  C       4.053310     -0.041189     -0.009378
  H      -1.480462     -7.283854     -0.032687
  H       1.389551      7.300598      0.007195
  C       5.481187     -0.085650     -0.008586
  C       6.162322     -1.322563     -0.012255
  C       7.556386     -1.361278     -0.011394
  C       8.297343     -0.174069     -0.006934
  C       7.632552      1.057518     -0.003328
  C       6.238850      1.105969     -0.004137
  H       9.389310     -0.208771     -0.006270
  H       8.204901      1.988374      0.000175
  H       5.582883     -2.247731     -0.015759
  H       5.718665      2.065740     -0.001296
  H       8.069533     -2.326054     -0.014261
47
Coordinates from ORCA-job opt_cc-pVDZ E -852.752248306515
  C       2.831560     -0.005050     -0.008351
  C      -1.314368     -0.014444     -0.013002
  C      -0.703781     -1.259487     -0.014485
  C       0.699337     -1.202602     -0.012648
  C       1.402122      0.024137     -0.009613
  C       0.708095      1.264372     -0.008018
  C      -0.700161      1.218096     -0.009888
  H       1.284026     -2.124251     -0.013666
  H      -1.286086      2.138909     -0.008885
  C      -1.509013     -2.547945     -0.017590
  H      -2.181527     -2.530547     -0.894723
  H      -2.180202     -2.535583      0.860672
  C      -0.707209     -3.852059     -0.021818
  H      -0.043807     -3.879795     -0.905932
  H      -0.044192     -3.885744      0.862381
  C      -1.601358     -5.097661     -0.026108
  H      -2.267877     -5.070414      0.855980
  H      -2.266636     -5.065212     -0.908957
  C      -0.809194     -6.407509     -0.029431
  H      -0.160822     -6.485890      0.860367
  H      -0.159097     -6.480321     -0.918444
  C       1.482955      2.567860     -0.004606
  H       2.158864      2.564104      0.870565
  H       2.159597      2.568248     -0.879235
  C       0.661643      3.859797     -0.001910
  H      -0.000688      3.885703     -0.886980
  H      -0.002286      3.881001      0.882084
  C       1.539602      5.117171      0.002176
  H       2.204838      5.093143      0.885271
  H       2.206756      5.097530     -0.879578
  C       0.731157      6.416961      0.004549
  H       0.079858      6.482156      0.893279
  H       0.082162      6.486851     -0.885508
  C       4.053049     -0.040501     -0.009430
  H      -1.477612     -7.283785     -0.032834
  H       1.388386      7.301667      0.007743
  C       5.480881     -0.086180     -0.008637
  C       6.160755     -1.323809     -0.010717
  C       7.554788     -1.364056     -0.009920
  C       8.296935     -0.177568     -0.007087
  C       7.633420      1.054720     -0.005057
  C       6.239755      1.104680     -0.005839
  H       9.388871     -0.213318     -0.006476
  H       8.206794      1.984947     -0.002851
  H       5.580332     -2.248368     -0.012945
  H       5.720631      2.065028     -0.004274
  H       8.066893     -2.329380     -0.011540
