47
Coordinates from ORCA-job opt_EPRII E -852.824056332957
  C       2.831806     -0.006236     -0.008272
  C      -1.314139     -0.014773     -0.012929
  C      -0.703841     -1.259958     -0.014279
  C       0.699293     -1.203568     -0.012429
  C       1.402358      0.023007     -0.009542
  C       0.708612      1.263431     -0.008102
  C      -0.699666      1.217589     -0.009942
  H       1.283513     -2.125515     -0.013363
  H      -1.285093      2.138713     -0.009038
  C      -1.509688     -2.548043     -0.017242
  H      -2.182378     -2.530206     -0.894243
  H      -2.180594     -2.535322      0.861245
  C      -0.708611     -3.852555     -0.021718
  H      -0.045377     -3.880501     -0.905977
  H      -0.045441     -3.886600      0.862377
  C      -1.603186     -5.097748     -0.025923
  H      -2.269586     -5.070311      0.856270
  H      -2.268554     -5.065066     -0.908715
  C      -0.811642     -6.407882     -0.029365
  H      -0.163127     -6.486668      0.860305
  H      -0.161649     -6.481086     -0.918435
  C       1.483960      2.566701     -0.004836
  H       2.159953      2.562804      0.870276
  H       2.160515      2.566853     -0.879537
  C       0.662999      3.858831     -0.002137
  H       0.000591      3.884733     -0.887173
  H      -0.000881      3.880108      0.881917
  C       1.540854      5.116159      0.001806
  H       2.206133      5.092323      0.884894
  H       2.207958      5.096581     -0.880007
  C       0.732381      6.415841      0.004122
  H       0.081081      6.481192      0.892854
  H       0.083265      6.485731     -0.885860
  C       4.053310     -0.041189     -0.009378
  H      -1.480462     -7.283854     -0.032687
  H       1.389551      7.300598      0.007195
  C       5.481187     -0.085650     -0.008586
  C       6.162322     -1.322563     -0.012255
  C       7.556386     -1.361278     -0.011394
  C       8.297343     -0.174069     -0.006934
  C       7.632552      1.057518     -0.003328
  C       6.238850      1.105969     -0.004137
  H       9.389310     -0.208771     -0.006270
  H       8.204901      1.988374      0.000175
  H       5.582883     -2.247731     -0.015759
  H       5.718665      2.065740     -0.001296
  H       8.069533     -2.326054     -0.014261
47
Coordinates from ORCA-job opt_EPRII E -852.825141267981
  C       2.833095     -0.006332     -0.008321
  C      -1.320346     -0.011902     -0.012880
  C      -0.709481     -1.260985     -0.014368
  C       0.696837     -1.204820     -0.012538
  C       1.401280      0.024374     -0.009561
  C       0.707824      1.268167     -0.007972
  C      -0.704026      1.223882     -0.009788
  H       1.277291     -2.122653     -0.013555
  H      -1.285787      2.140449     -0.008792
  C      -1.517263     -2.551529     -0.017439
  H      -2.184936     -2.534675     -0.890055
  H      -2.183439     -2.539750      0.856430
  C      -0.712029     -3.857820     -0.021811
  H      -0.053089     -3.885186     -0.900957
  H      -0.053378     -3.891226      0.857347
  C      -1.606678     -5.107605     -0.026158
  H      -2.268486     -5.081842      0.850811
  H      -2.267290     -5.076576     -0.903857
  C      -0.810443     -6.420467     -0.029575
  H      -0.166388     -6.496732      0.854425
  H      -0.164696     -6.491093     -0.912809
  C       1.484903      2.574311     -0.004672
  H       2.155718      2.571393      0.866218
  H       2.156290      2.575457     -0.875143
  C       0.659462      3.867819     -0.001941
  H       0.001453      3.893076     -0.881980
  H      -0.000038      3.888419      0.877098
  C       1.536949      5.130055      0.002097
  H       2.197526      5.108060      0.880100
  H       2.199366      5.112392     -0.874616
  C       0.723445      6.432156      0.004481
  H       0.076504      6.494821      0.887470
  H       0.078735      6.499467     -0.879797
  C       4.057412     -0.042046     -0.009432
  H      -1.473429     -7.292313     -0.032999
  H       1.374665      7.312870      0.007622
  C       5.488369     -0.088626     -0.008661
  C       6.168611     -1.330375     -0.010915
  C       7.566726     -1.372209     -0.010082
  C       8.312657     -0.182566     -0.007028
  C       7.647557      1.054211     -0.004808
  C       6.249746      1.105115     -0.005632
  H       9.398986     -0.219029     -0.006391
  H       8.218680      1.979237     -0.002442
  H       5.590077     -2.249730     -0.013278
  H       5.733804      2.060972     -0.003932
  H       8.075401     -2.333014     -0.011827
47
Coordinates from ORCA-job opt_EPRII E -852.825191610769
  C       2.832915     -0.006866     -0.008366
  C      -1.321722     -0.009377     -0.012867
  C      -0.711337     -1.259739     -0.014485
  C       0.695736     -1.204821     -0.012663
  C       1.400529      0.024795     -0.009573
  C       0.708384      1.269500     -0.007862
  C      -0.704368      1.227237     -0.009665
  H       1.274982     -2.123018     -0.013773
  H      -1.285076      2.143913     -0.008571
  C      -1.520244     -2.550487     -0.017711
  H      -2.185812     -2.534464     -0.890933
  H      -2.184733     -2.539500      0.856433
  C      -0.710788     -3.855880     -0.021878
  H      -0.053148     -3.882501     -0.901009
  H      -0.053810     -3.888491      0.857552
  C      -1.605637     -5.107366     -0.026406
  H      -2.266009     -5.083159      0.850649
  H      -2.264494     -5.077873     -0.904436
  C      -0.804930     -6.419820     -0.029689
  H      -0.161774     -6.493149      0.854424
  H      -0.159698     -6.487449     -0.912744
  C       1.486873      2.575964     -0.004469
  H       2.155557      2.573591      0.867022
  H       2.156213      2.577722     -0.875472
  C       0.657515      3.868632     -0.001731
  H       0.001066      3.893414     -0.881936
  H      -0.000538      3.888673      0.877391
  C       1.535498      5.132364      0.002443
  H       2.194384      5.111702      0.880713
  H       2.196338      5.116142     -0.874452
  C       0.717900      6.434220      0.004850
  H       0.071652      6.494070      0.887754
  H       0.074045      6.498859     -0.879464
  C       4.057729     -0.042716     -0.009474
  H      -1.466342     -7.292169     -0.033282
  H       1.367819      7.315210      0.008117
  C       5.489303     -0.090680     -0.008724
  C       6.167668     -1.334209     -0.009430
  C       7.566658     -1.377895     -0.008649
  C       8.314768     -0.188242     -0.007187
  C       7.650556      1.050325     -0.006515
  C       6.251853      1.103052     -0.007298
  H       9.400654     -0.225987     -0.006590
  H       8.222778      1.974227     -0.005395
  H       5.587974     -2.252419     -0.010563
  H       5.737213      2.059215     -0.006811
  H       8.074046     -2.338948     -0.009189
47
Coordinates from ORCA-job opt_EPRII E -852.825202979793
  C       2.832664     -0.007030     -0.008450
  C      -1.321717     -0.008782     -0.012905
  C      -0.711595     -1.259457     -0.014625
  C       0.695647     -1.205141     -0.012817
  C       1.400066      0.024720     -0.009644
  C       0.708648      1.269535     -0.007837
  C      -0.704337      1.228206     -0.009625
  H       1.274413     -2.123622     -0.013992
  H      -1.284933      2.144893     -0.008459
  C      -1.521394     -2.550212     -0.017973
  H      -2.185471     -2.534670     -0.892207
  H      -2.184941     -2.539540      0.856754
  C      -0.710085     -3.855335     -0.021773
  H      -0.053267     -3.882016     -0.901380
  H      -0.054412     -3.887804      0.858498
  C      -1.605749     -5.107092     -0.026420
  H      -2.265254     -5.083527      0.851202
  H      -2.263308     -5.078377     -0.905345
  C      -0.802893     -6.419410     -0.029400
  H      -0.160391     -6.490691      0.855369
  H      -0.157810     -6.485083     -0.912723
  C       1.488133      2.576155     -0.004373
  H       2.155392      2.574009      0.868055
  H       2.156175      2.578146     -0.876215
  C       0.657074      3.868579     -0.001700
  H       0.001768      3.893498     -0.882612
  H       0.000022      3.888761      0.878027
  C       1.536076      5.132460      0.002551
  H       2.193783      5.112407      0.881613
  H       2.195887      5.116855     -0.875024
  C       0.716567      6.434301      0.004888
  H       0.070661      6.492280      0.888178
  H       0.073262      6.497113     -0.879969
  C       4.057529     -0.042080     -0.009526
  H      -1.464175     -7.291941     -0.033129
  H       1.366541      7.315335      0.008249
  C       5.489268     -0.090509     -0.008780
  C       6.166483     -1.334669     -0.009597
  C       7.565599     -1.379092     -0.008834
  C       8.314471     -0.189669     -0.007279
  C       7.650830      1.049420     -0.006489
  C       6.251991      1.103061     -0.007254
  H       9.400392     -0.227961     -0.006699
  H       8.223825      1.972937     -0.005297
  H       5.586145     -2.252520     -0.010805
  H       5.737885      2.059559     -0.006682
  H       8.072681     -2.340395     -0.009458
47
Coordinates from ORCA-job opt_EPRII E -852.825204950724
  C       2.832750     -0.007026     -0.008538
  C      -1.321227     -0.009087     -0.012934
  C      -0.711139     -1.259621     -0.014747
  C       0.696046     -1.205428     -0.012952
  C       1.400111      0.024530     -0.009719
  C       0.708755      1.269203     -0.007834
  C      -0.704171      1.227961     -0.009590
  H       1.274749     -2.124003     -0.014183
  H      -1.285017      2.144564     -0.008357
  C      -1.521335     -2.550266     -0.018223
  H      -2.184720     -2.534794     -0.893032
  H      -2.184690     -2.539529      0.856693
  C      -0.710102     -3.855592     -0.021701
  H      -0.053522     -3.882624     -0.901529
  H      -0.055086     -3.888234      0.859109
  C      -1.606343     -5.107042     -0.026447
  H      -2.265608     -5.083452      0.851417
  H      -2.263281     -5.078429     -0.905902
  C      -0.803343     -6.419535     -0.029157
  H      -0.161252     -6.490161      0.856030
  H      -0.158238     -6.484648     -0.912573
  C       1.488454      2.575873     -0.004295
  H       2.155155      2.573760      0.868595
  H       2.156044      2.577927     -0.876519
  C       0.657236      3.868331     -0.001653
  H       0.002419      3.893449     -0.882978
  H       0.000572      3.888696      0.878415
  C       1.536624      5.132056      0.002664
  H       2.193846      5.112142      0.882153
  H       2.196059      5.116609     -0.875258
  C       0.716770      6.433947      0.004962
  H       0.070983      6.491216      0.888453
  H       0.073737      6.496095     -0.880208
  C       4.057560     -0.041158     -0.009585
  H      -1.465005     -7.291860     -0.032997
  H       1.367006      7.314871      0.008399
  C       5.489295     -0.089648     -0.008845
  C       6.166131     -1.333882     -0.009628
  C       7.565134     -1.378457     -0.008865
  C       8.314078     -0.189238     -0.007346
  C       7.650717      1.049831     -0.006591
  C       6.251984      1.103767     -0.007353
  H       9.400065     -0.227665     -0.006767
  H       8.224047      1.973231     -0.005425
  H       5.585595     -2.251669     -0.010807
  H       5.738049      2.060418     -0.006803
  H       8.072255     -2.339826     -0.009462
