37
Coordinates from ORCA-job opt_EPRII E -621.920810533962
  C      -2.631597      0.129889      0.152946
  C       1.575864     -0.218018     -0.504992
  C       0.963822      1.083546     -0.471921
  C      -0.443340      1.138551     -0.248119
  C      -1.220279     -0.005180     -0.065902
  C      -0.611010     -1.294596     -0.103795
  C       0.773999     -1.347005     -0.323995
  H      -0.932113      2.114973     -0.219804
  H       1.262338     -2.323049     -0.360688
  C       1.682287      2.282286     -0.654363
  H       2.755459      2.297223     -0.838416
  H       1.162943      3.241730     -0.622224
  C       3.065834     -0.388546     -0.698656
  H       3.262023     -1.404533     -1.082470
  H       3.432977      0.306369     -1.474054
  C       3.887515     -0.182955      0.591465
  H       3.688811      0.825725      0.993912
  H       3.528649     -0.892624      1.358202
  C       5.390342     -0.369448      0.371431
  H       5.781137      0.351469     -0.367554
  H       5.618742     -1.381978     -0.004350
  C      -1.464202     -2.531527      0.084086
  H      -2.003034     -2.436934      1.045488
  H      -2.265137     -2.516675     -0.678829
  C      -0.750622     -3.885261      0.036886
  H      -0.229468     -4.002281     -0.931186
  H       0.033199     -3.924469      0.815700
  C      -1.711359     -5.064693      0.232430
  H      -2.238010     -4.948281      1.197733
  H      -2.495639     -5.026358     -0.546048
  C      -1.012747     -6.426102      0.189580
  H      -0.246895     -6.508811      0.980041
  H      -0.505961     -6.586065     -0.777902
  C      -3.826626      0.249482      0.342032
  H      -4.879280      0.361416      0.513224
  H       5.954180     -0.226136      1.307646
  H      -1.728336     -7.252292      0.331363
37
Coordinates from ORCA-job opt_EPRII E -621.921674416994
  C      -2.635772      0.133365      0.154394
  C       1.579794     -0.219485     -0.501707
  C       0.966308      1.085421     -0.471183
  C      -0.443671      1.142623     -0.246530
  C      -1.222194     -0.003316     -0.063709
  C      -0.613239     -1.296003     -0.099895
  C       0.775205     -1.350470     -0.319381
  H      -0.929399      2.114413     -0.220292
  H       1.258858     -2.322577     -0.356326
  C       1.687519      2.287370     -0.655655
  H       2.754517      2.302089     -0.838773
  H       1.172492      3.242181     -0.627331
  C       3.072314     -0.390764     -0.698017
  H       3.268616     -1.404020     -1.071181
  H       3.435851      0.294926     -1.474456
  C       3.897267     -0.172575      0.592267
  H       3.697098      0.831711      0.985195
  H       3.544869     -0.874159      1.359265
  C       5.405037     -0.355379      0.370293
  H       5.788614      0.357577     -0.369208
  H       5.634458     -1.362836      0.003243
  C      -1.470518     -2.534350      0.086393
  H      -2.005169     -2.441731      1.042863
  H      -2.265522     -2.518304     -0.673374
  C      -0.756377     -3.891603      0.037440
  H      -0.238470     -4.007480     -0.924966
  H       0.021552     -3.933505      0.812684
  C      -1.721269     -5.072816      0.230703
  H      -2.244230     -4.958646      1.190366
  H      -2.499714     -5.032525     -0.543806
  C      -1.022815     -6.439341      0.185539
  H      -0.262649     -6.523355      0.971203
  H      -0.519450     -6.596441     -0.775777
  C      -3.835016      0.251719      0.343198
  H      -4.881311      0.361344      0.512136
  H       5.966125     -0.204628      1.298748
  H      -1.735241     -7.259587      0.324534
37
Coordinates from ORCA-job opt_EPRII E -621.921717342491
  C      -2.635432      0.135090      0.155803
  C       1.580695     -0.223321     -0.500478
  C       0.968174      1.082452     -0.470785
  C      -0.442086      1.142860     -0.246019
  C      -1.221606     -0.003246     -0.062875
  C      -0.614465     -1.297100     -0.098759
  C       0.774680     -1.354198     -0.318143
  H      -0.926247      2.114975     -0.220246
  H       1.256121     -2.327063     -0.354192
  C       1.692005      2.283960     -0.657011
  H       2.758797      2.296259     -0.840497
  H       1.179243      3.239688     -0.630542
  C       3.073668     -0.395098     -0.697348
  H       3.270742     -1.410036     -1.063293
  H       3.436198      0.287193     -1.476302
  C       3.897918     -0.167763      0.593680
  H       3.694993      0.837177      0.981093
  H       3.549222     -0.867840      1.362564
  C       5.407984     -0.346389      0.370301
  H       5.786822      0.365261     -0.371924
  H       5.639210     -1.354164      0.007232
  C      -1.474153     -2.534797      0.088063
  H      -2.005172     -2.443238      1.045710
  H      -2.268276     -2.518200     -0.671345
  C      -0.757927     -3.892440      0.036513
  H      -0.242889     -4.007494     -0.926626
  H       0.019463     -3.935475      0.811094
  C      -1.725020     -5.073707      0.230165
  H      -2.244683     -4.961186      1.190863
  H      -2.503159     -5.032766     -0.543445
  C      -1.025103     -6.441523      0.181892
  H      -0.264398     -6.525002      0.966194
  H      -0.524170     -6.595869     -0.780399
  C      -3.835293      0.252172      0.345122
  H      -4.881914      0.360571      0.514055
  H       5.968056     -0.189899      1.297754
  H      -1.737530     -7.260999      0.321029
37
Coordinates from ORCA-job opt_EPRII E -621.921729694698
  C      -2.633420      0.135593      0.157641
  C       1.581972     -0.226788     -0.499560
  C       0.970155      1.079229     -0.471140
  C      -0.439768      1.142294     -0.245733
  C      -1.219607     -0.003808     -0.061669
  C      -0.614083     -1.298166     -0.097319
  C       0.775242     -1.357311     -0.317013
  H      -0.922934      2.114912     -0.220619
  H       1.255024     -2.330999     -0.352326
  C       1.695429      2.280051     -0.660483
  H       2.762071      2.290379     -0.845508
  H       1.184110      3.236709     -0.635793
  C       3.075188     -0.398930     -0.695956
  H       3.273178     -1.416091     -1.054766
  H       3.437395      0.280350     -1.477604
  C       3.898103     -0.163304      0.595582
  H       3.691734      0.842411      0.978634
  H       3.553166     -0.863402      1.365995
  C       5.409818     -0.336684      0.371091
  H       5.783785      0.375242     -0.373307
  H       5.643345     -1.344815      0.010556
  C      -1.475928     -2.535067      0.090478
  H      -2.002697     -2.444491      1.050366
  H      -2.270410     -2.517332     -0.668206
  C      -0.759405     -3.893459      0.035450
  H      -0.247939     -4.007951     -0.929484
  H       0.018364     -3.938546      0.809305
  C      -1.729006     -5.073658      0.229900
  H      -2.244659     -4.962584      1.192779
  H      -2.507911     -5.031160     -0.542665
  C      -1.029277     -6.442769      0.177497
  H      -0.267030     -6.526531      0.960251
  H      -0.531522     -6.594443     -0.786850
  C      -3.833498      0.250157      0.347455
  H      -4.880508      0.356357      0.516239
  H       5.968786     -0.175280      1.298438
  H      -1.742797     -7.261273      0.317244
37
Coordinates from ORCA-job opt_EPRII E -621.921730765975
  C      -2.632261      0.135597      0.158280
  C       1.582602     -0.227949     -0.499387
  C       0.970982      1.078033     -0.471869
  C      -0.438691      1.141828     -0.246225
  C      -1.218560     -0.004124     -0.061514
  C      -0.613473     -1.298467     -0.096682
  C       0.775775     -1.358161     -0.316443
  H      -0.921624      2.114629     -0.221467
  H       1.255113     -2.332163     -0.351277
  C       1.696403      2.278520     -0.662699
  H       2.762988      2.288352     -0.848450
  H       1.185352      3.235418     -0.638618
  C       3.075857     -0.400369     -0.694988
  H       3.274093     -1.418558     -1.050947
  H       3.438377      0.277489     -1.477847
  C       3.898199     -0.161957      0.596488
  H       3.690003      0.843813      0.978588
  H       3.554925     -0.862715      1.367175
  C       5.410310     -0.332502      0.371752
  H       5.782258      0.380371     -0.372867
  H       5.645190     -1.340424      0.011277
  C      -1.475818     -2.535007      0.091974
  H      -2.000380     -2.444775      1.053176
  H      -2.271226     -2.516565     -0.665774
  C      -0.760120     -3.893857      0.035006
  H      -0.250486     -4.008105     -0.931013
  H       0.018339     -3.940156      0.808199
  C      -1.730507     -5.073359      0.230036
  H      -2.244106     -4.962872      1.194173
  H      -2.510344     -5.029800     -0.541643
  C      -1.031665     -6.442992      0.175313
  H      -0.268308     -6.527405      0.957024
  H      -0.535734     -6.593651     -0.790222
  C      -3.832342      0.248367      0.348437
  H      -4.879552      0.353127      0.517084
  H       5.968758     -0.169820      1.299295
  H      -1.745858     -7.260946      0.315551
37
Coordinates from ORCA-job opt_EPRII E -621.921730621593
  C      -2.631576      0.135761      0.158364
  C       1.583100     -0.228738     -0.498964
  C       0.971630      1.077258     -0.472524
  C      -0.437927      1.141425     -0.246922
  C      -1.217921     -0.004261     -0.061404
  C      -0.613038     -1.298603     -0.095771
  C       0.776164     -1.358618     -0.315406
  H      -0.920746      2.114330     -0.222827
  H       1.255243     -2.332819     -0.349638
  C       1.697081      2.277441     -0.664527
  H       2.763643      2.287007     -0.850596
  H       1.186127      3.234441     -0.641072
  C       3.076337     -0.401501     -0.693941
  H       3.274571     -1.420448     -1.047902
  H       3.439162      0.275025     -1.477903
  C       3.898581     -0.161217      0.597162
  H       3.688766      0.844347      0.979066
  H       3.556804     -0.862653      1.367992
  C       5.410874     -0.329165      0.372089
  H       5.781235      0.384830     -0.372311
  H       5.647113     -1.336615      0.011051
  C      -1.475495     -2.534869      0.093831
  H      -1.998038     -2.444962      1.056240
  H      -2.272237     -2.515677     -0.662544
  C      -0.760820     -3.894099      0.034825
  H      -0.252740     -4.007900     -0.932140
  H       0.018573     -3.941568      0.807097
  C      -1.731532     -5.073135      0.230310
  H      -2.243375     -4.963269      1.195522
  H      -2.512513     -5.028450     -0.540232
  C      -1.033693     -6.443141      0.173217
  H      -0.269192     -6.528549      0.953762
  H      -0.539451     -6.592996     -0.793356
  C      -3.831774      0.246719      0.348400
  H      -4.879221      0.350150      0.516391
  H       5.969101     -0.165966      1.299716
  H      -1.748348     -7.260672      0.313846
37
Coordinates from ORCA-job opt_EPRII E -621.921730070592
  C      -2.631135      0.136092      0.158159
  C       1.583587     -0.229531     -0.498372
  C       0.972297      1.076577     -0.473269
  C      -0.437261      1.141039     -0.247916
  C      -1.217519     -0.004302     -0.061469
  C      -0.612770     -1.298720     -0.094607
  C       0.776447     -1.359051     -0.313969
  H      -0.919968      2.114043     -0.224749
  H       1.255317     -2.333399     -0.347294
  C       1.697853      2.276431     -0.666396
  H       2.764407      2.285724     -0.852533
  H       1.186985      3.233503     -0.643844
  C       3.076798     -0.402684     -0.692801
  H       3.274958     -1.422277     -1.045016
  H       3.439862      0.272421     -1.477924
  C       3.899103     -0.160579      0.597832
  H       3.687597      0.844664      0.979705
  H       3.558833     -0.862551      1.368882
  C       5.411564     -0.325853      0.372393
  H       5.780492      0.389290     -0.371628
  H       5.649364     -1.332684      0.010611
  C      -1.475199     -2.534705      0.096262
  H      -1.995412     -2.445171      1.060021
  H      -2.273793     -2.514645     -0.658143
  C      -0.761575     -3.894277      0.034737
  H      -0.255166     -4.007361     -0.933226
  H       0.019091     -3.943050      0.805682
  C      -1.732454     -5.072973      0.230701
  H      -2.242415     -4.963898      1.197030
  H      -2.514907     -5.026961     -0.538306
  C      -1.035667     -6.443315      0.170759
  H      -0.269788     -6.530091      0.949819
  H      -0.543315     -6.592334     -0.796918
  C      -3.831534      0.245077      0.347930
  H      -4.879254      0.347224      0.514955
  H       5.969680     -0.162328      1.300027
  H      -1.750638     -7.260504      0.311773
