37
Coordinates from ORCA-job opt_cc-pVDZ E -621.857979196189
  C      -2.631597      0.129889      0.152946
  C       1.575864     -0.218018     -0.504992
  C       0.963822      1.083546     -0.471921
  C      -0.443340      1.138551     -0.248119
  C      -1.220279     -0.005180     -0.065902
  C      -0.611010     -1.294596     -0.103795
  C       0.773999     -1.347005     -0.323995
  H      -0.932113      2.114973     -0.219804
  H       1.262338     -2.323049     -0.360688
  C       1.682287      2.282286     -0.654363
  H       2.755459      2.297223     -0.838416
  H       1.162943      3.241730     -0.622224
  C       3.065834     -0.388546     -0.698656
  H       3.262023     -1.404533     -1.082470
  H       3.432977      0.306369     -1.474054
  C       3.887515     -0.182955      0.591465
  H       3.688811      0.825725      0.993912
  H       3.528649     -0.892624      1.358202
  C       5.390342     -0.369448      0.371431
  H       5.781137      0.351469     -0.367554
  H       5.618742     -1.381978     -0.004350
  C      -1.464202     -2.531527      0.084086
  H      -2.003034     -2.436934      1.045488
  H      -2.265137     -2.516675     -0.678829
  C      -0.750622     -3.885261      0.036886
  H      -0.229468     -4.002281     -0.931186
  H       0.033199     -3.924469      0.815700
  C      -1.711359     -5.064693      0.232430
  H      -2.238010     -4.948281      1.197733
  H      -2.495639     -5.026358     -0.546048
  C      -1.012747     -6.426102      0.189580
  H      -0.246895     -6.508811      0.980041
  H      -0.505961     -6.586065     -0.777902
  C      -3.826626      0.249482      0.342032
  H      -4.879280      0.361416      0.513224
  H       5.954180     -0.226136      1.307646
  H      -1.728336     -7.252292      0.331363
37
Coordinates from ORCA-job opt_cc-pVDZ E -621.857979559054
  C      -2.631254      0.130040      0.153618
  C       1.576073     -0.218268     -0.504915
  C       0.963883      1.083255     -0.473502
  C      -0.443221      1.138381     -0.249565
  C      -1.220096     -0.005181     -0.066164
  C      -0.610813     -1.294615     -0.103079
  C       0.774257     -1.347118     -0.322980
  H      -0.932054      2.114791     -0.222291
  H       1.262593     -2.323151     -0.358854
  C       1.682181      2.281840     -0.657448
  H       2.755140      2.296584     -0.842674
  H       1.162652      3.241230     -0.627097
  C       3.066103     -0.388858     -0.697740
  H       3.262481     -1.405155     -1.080710
  H       3.433529      0.305528     -1.473508
  C       3.887275     -0.182432      0.592554
  H       3.688368      0.826444      0.994430
  H       3.528201     -0.891693      1.359533
  C       5.390182     -0.368914      0.373185
  H       5.781250      0.351972     -0.365653
  H       5.618721     -1.381441     -0.002445
  C      -1.463893     -2.531456      0.086049
  H      -2.000569     -2.437299      1.048740
  H      -2.266577     -2.516022     -0.675150
  C      -0.750675     -3.885280      0.036580
  H      -0.231388     -4.001584     -0.932616
  H       0.034651     -3.925419      0.813943
  C      -1.711369     -5.064580      0.233027
  H      -2.235633     -4.949112      1.199775
  H      -2.497582     -5.025078     -0.543585
  C      -1.013273     -6.426080      0.186891
  H      -0.245260     -6.509857      0.975232
  H      -0.509185     -6.585150     -0.782141
  C      -3.826218      0.249365      0.343367
  H      -4.878905      0.360833      0.514750
  H       5.953593     -0.225504      1.309596
  H      -1.728700     -7.252170      0.329745
