35
Coordinates from ORCA-job BDE E -545.730133701874
  C       1.411778      0.000000     -0.000000
  C       0.701091      1.269014     -0.003453
  C      -0.675032      1.220444     -0.003257
  C      -1.411778     -0.000000     -0.000000
  C      -0.712985     -1.255156      0.003413
  C       0.665555     -1.242087      0.003302
  H      -1.246493      2.149292     -0.005725
  H       1.228688     -2.174393      0.005768
  C       1.518336      2.544202     -0.007160
  H       2.192386      2.517968     -0.885345
  H       2.194153      2.521897      0.869776
  C       0.740412      3.862503     -0.009353
  H       0.078092      3.903064     -0.893488
  H       0.079948      3.907036      0.875983
  C       1.658925      5.090558     -0.013137
  H       2.324982      5.049521      0.868537
  H       2.322916      5.045620     -0.896181
  C       0.891218      6.414777     -0.015185
  H       0.245093      6.504672      0.875121
  H       0.242503      6.500395     -0.904028
  C      -1.512502     -2.544099      0.006918
  H      -2.187914     -2.522988      0.881950
  H      -2.188581     -2.527296     -0.867689
  C      -0.721151     -3.854153      0.009824
  H      -0.059533     -3.895694     -0.875019
  H      -0.058710     -3.891358      0.894241
  C      -1.629152     -5.090258      0.013304
  H      -2.293988     -5.050475      0.896116
  H      -2.295015     -5.054678     -0.868911
  C      -0.851376     -6.408652      0.016005
  H      -0.202405     -6.489002      0.905103
  H      -0.203941     -6.493569     -0.873790
  H       1.576274      7.277940     -0.018259
  H      -1.529504     -7.277362      0.018824
  H      -2.792890      0.000000      0.000000
35
Coordinates from ORCA-job BDE E -545.760464404425
  C       1.374014      0.008287     -0.000030
  C       0.698817      1.262897     -0.003446
  C      -0.692794      1.211937     -0.003243
  C      -1.405991     -0.005870      0.000017
  C      -0.719953     -1.249545      0.003395
  C       0.674174     -1.224303      0.003255
  H      -1.266764      2.136644     -0.005702
  H       1.249743     -2.146912      0.005700
  C       1.519909      2.542691     -0.007160
  H       2.190283      2.517540     -0.881722
  H       2.192043      2.521452      0.866146
  C       0.740109      3.863195     -0.009352
  H       0.080209      3.903649     -0.890356
  H       0.082059      3.907605      0.872849
  C       1.658414      5.094437     -0.013143
  H       2.321745      5.054333      0.865310
  H       2.319684      5.050446     -0.892962
  C       0.888722      6.421165     -0.015196
  H       0.245307      6.509941      0.871506
  H       0.242732      6.505678     -0.900440
  C      -1.520690     -2.544113      0.006915
  H      -2.192804     -2.524991      0.879749
  H      -2.193476     -2.529283     -0.865479
  C      -0.728614     -3.856385      0.009825
  H      -0.069671     -3.897590     -0.871806
  H      -0.068849     -3.893266      0.891029
  C      -1.636827     -5.095464      0.013317
  H      -2.298939     -5.056642      0.892842
  H      -2.299966     -5.060836     -0.865608
  C      -0.856815     -6.416110      0.016028
  H      -0.210565     -6.495293      0.901552
  H      -0.212093     -6.499852     -0.870190
  H       1.570569      7.281601     -0.018257
  H      -1.531687     -7.282030      0.018841
  H      -2.642639     -0.007330      0.000021
35
Coordinates from ORCA-job BDE E -545.774717293100
  C       1.329865      0.009058     -0.000066
  C       0.698832      1.256989     -0.003464
  C      -0.707075      1.211120     -0.003278
  C      -1.406881     -0.005720     -0.000008
  C      -0.733384     -1.245255      0.003362
  C       0.674801     -1.216817      0.003218
  H      -1.277038      2.137320     -0.005746
  H       1.257037     -2.135131      0.005662
  C       1.524880      2.537911     -0.007170
  H       2.192445      2.513485     -0.880318
  H       2.194209      2.517376      0.864716
  C       0.740836      3.858243     -0.009338
  H       0.082403      3.897626     -0.888769
  H       0.084258      3.901559      0.871299
  C       1.657890      5.092807     -0.013125
  H       2.319428      5.054670      0.863851
  H       2.317364      5.050806     -0.891477
  C       0.883756      6.420031     -0.015160
  H       0.241837      6.505991      0.869991
  H       0.239265      6.501747     -0.898843
  C      -1.535467     -2.541743      0.006900
  H      -2.204847     -2.526134      0.879549
  H      -2.205533     -2.530435     -0.865284
  C      -0.737330     -3.852244      0.009808
  H      -0.079937     -3.890204     -0.870281
  H      -0.079106     -3.885862      0.889448
  C      -1.641275     -5.096871      0.013335
  H      -2.301673     -5.061810      0.891372
  H      -2.302713     -5.066023     -0.864077
  C      -0.853013     -6.415666      0.016054
  H      -0.208079     -6.490218      0.900012
  H      -0.209612     -6.494805     -0.868622
  H       1.562752      7.280041     -0.018210
  H      -1.522656     -7.282943      0.018884
  H      -2.496838     -0.001218     -0.000019
35
Coordinates from ORCA-job BDE E -545.775293697959
  C       1.315794      0.006170     -0.000197
  C       0.707693      1.256634     -0.003628
  C      -0.704151      1.213129     -0.003506
  C      -1.400921     -0.004855     -0.000166
  C      -0.733478     -1.246072      0.003250
  C       0.680614     -1.221981      0.003191
  H      -1.270694      2.140909     -0.006025
  H       1.261581     -2.140363      0.005720
  C       1.534557      2.538559     -0.007264
  H       2.199192      2.515894     -0.881046
  H       2.201000      2.519673      0.865217
  C       0.744324      3.856270     -0.009314
  H       0.086911      3.893568     -0.888275
  H       0.088816      3.897391      0.870903
  C       1.657481      5.094840     -0.013055
  H       2.317587      5.059969      0.863766
  H       2.315499      5.056189     -0.891285
  C       0.876604      6.419684     -0.015007
  H       0.235200      6.501519      0.869541
  H       0.232637      6.497371     -0.898064
  C      -1.540420     -2.540775      0.006853
  H      -2.206546     -2.526632      0.880958
  H      -2.207327     -2.530982     -0.866713
  C      -0.741067     -3.851750      0.009759
  H      -0.085010     -3.888893     -0.869989
  H      -0.084059     -3.884468      0.888969
  C      -1.644825     -5.097618      0.013417
  H      -2.303577     -5.063911      0.891369
  H      -2.304712     -5.068240     -0.863839
  C      -0.853554     -6.416190      0.016185
  H      -0.209390     -6.488459      0.899518
  H      -0.210997     -6.493160     -0.867921
  H       1.551536      7.281649     -0.018005
  H      -1.521632     -7.283431      0.019099
  H      -2.485263      0.006045     -0.000209
35
Coordinates from ORCA-job BDE E -545.775416455922
  C       1.312714      0.003027     -0.000190
  C       0.717318      1.257952     -0.003703
  C      -0.697884      1.215080     -0.003664
  C      -1.392911     -0.004415     -0.000297
  C      -0.730001     -1.248006      0.003217
  C       0.687201     -1.229708      0.003240
  H      -1.262699      2.143796     -0.006264
  H       1.264035     -2.149827      0.005856
  C       1.542723      2.540517     -0.007323
  H       2.205354      2.519617     -0.882470
  H       2.207221      2.523340      0.866474
  C       0.746537      3.855111     -0.009292
  H       0.089743      3.890346     -0.888642
  H       0.091687      3.894103      0.871352
  C       1.655873      5.096989     -0.013011
  H       2.315119      5.065189      0.864464
  H       2.313029      5.061441     -0.891908
  C       0.868731      6.418931     -0.014926
  H       0.227234      6.496908      0.869892
  H       0.224706      6.492807     -0.898259
  C      -1.542136     -2.539661      0.006860
  H      -2.205724     -2.525762      0.882640
  H      -2.206631     -2.530107     -0.868286
  C      -0.743319     -3.852061      0.009710
  H      -0.088126     -3.889521     -0.870613
  H      -0.087019     -3.885068      0.889382
  C      -1.648490     -5.097233      0.013471
  H      -2.306140     -5.063761      0.892154
  H      -2.307402     -5.068155     -0.864422
  C      -0.856606     -6.416292      0.016235
  H      -0.212681     -6.487461      0.899817
  H      -0.214394     -6.492222     -0.868198
  H       1.540387      7.283438     -0.017888
  H      -1.525139     -7.283191      0.019217
  H      -2.482907      0.011544     -0.000418
35
Coordinates from ORCA-job BDE E -545.775422424772
  C       1.314014      0.002540     -0.000124
  C       0.719065      1.258502     -0.003710
  C      -0.696426      1.215247     -0.003725
  C      -1.391119     -0.004528     -0.000353
  C      -0.728508     -1.248394      0.003234
  C       0.688737     -1.231465      0.003316
  H      -1.261360      2.143919     -0.006380
  H       1.263607     -2.152525      0.005978
  C       1.543486      2.540987     -0.007350
  H       2.205892      2.520475     -0.882934
  H       2.207800      2.524192      0.866853
  C       0.746315      3.854962     -0.009294
  H       0.089688      3.889949     -0.888964
  H       0.091638      3.893679      0.871678
  C       1.655166      5.097171     -0.012997
  H       2.314276      5.065853      0.864819
  H       2.312201      5.062114     -0.892226
  C       0.867091      6.418576     -0.014909
  H       0.225490      6.495837      0.870152
  H       0.222994      6.491755     -0.898503
  C      -1.541777     -2.539135      0.006894
  H      -2.204893     -2.525165      0.883132
  H      -2.205881     -2.529486     -0.868647
  C      -0.743484     -3.852173      0.009694
  H      -0.088496     -3.889956     -0.871012
  H      -0.087305     -3.885523      0.889687
  C      -1.649287     -5.096734      0.013486
  H      -2.306744     -5.063123      0.892538
  H      -2.308077     -5.067515     -0.864725
  C      -0.857801     -6.416072      0.016217
  H      -0.213841     -6.487177      0.900034
  H      -0.215617     -6.491934     -0.868496
  H       1.538441      7.283553     -0.017849
  H      -1.526896     -7.282775      0.019219
  H      -2.478987      0.012053     -0.000524
35
Coordinates from ORCA-job BDE E -545.775423482326
  C       1.314375      0.002750     -0.000078
  C       0.718906      1.258525     -0.003724
  C      -0.696542      1.215019     -0.003792
  C      -1.391134     -0.004682     -0.000411
  C      -0.728083     -1.248246      0.003241
  C       0.688980     -1.231266      0.003375
  H      -1.261652      2.143582     -0.006495
  H       1.263168     -2.152683      0.006084
  C       1.543075      2.540928     -0.007378
  H       2.205455      2.520488     -0.883000
  H       2.207400      2.524194      0.866833
  C       0.746060      3.855004     -0.009298
  H       0.089550      3.890163     -0.889047
  H       0.091504      3.893859      0.871754
  C       1.655161      5.097033     -0.012981
  H       2.314188      5.065625      0.864896
  H       2.312128      5.061905     -0.892259
  C       0.867298      6.418580     -0.014886
  H       0.225720      6.495842      0.870192
  H       0.223253      6.491787     -0.898515
  C      -1.541431     -2.538937      0.006927
  H      -2.204393     -2.525076      0.883271
  H      -2.205457     -2.529384     -0.868661
  C      -0.743296     -3.852196      0.009684
  H      -0.088448     -3.890059     -0.871128
  H      -0.087188     -3.885645      0.889734
  C      -1.649233     -5.096601      0.013502
  H      -2.306595     -5.062980      0.892632
  H      -2.307986     -5.067369     -0.864742
  C      -0.857890     -6.416044      0.016204
  H      -0.213941     -6.487129      0.900031
  H      -0.215771     -6.491880     -0.868558
  H       1.538833      7.283414     -0.017802
  H      -1.527126     -7.282638      0.019223
  H      -2.479488      0.011798     -0.000623
