%chk=g09BDE
%NProcShared=8
#P bmk/6-31+g ! ASE formatted method and basis
opt(modredun,calcfc) freq

Gaussian input prepared by ASE

0 2
C                 2.8318061377       -0.0062362209       -0.0082715432
C                -1.3141394306       -0.0147728117       -0.0129285859
C                -0.7038408391       -1.2599579993       -0.0142788797
C                 0.6992932137       -1.2035675140       -0.0124285991
C                 1.4023579674        0.0230073350       -0.0095421522
C                 0.7086120305        1.2634313362       -0.0081019968
C                -0.6996661610        1.2175887857       -0.0099424108
H                 1.2835127605       -2.1255152976       -0.0133634815
H                -1.2850929168        2.1387133810       -0.0090379849
C                -1.5096883946       -2.5480428188       -0.0172421055
H                -2.1823779841       -2.5302057165       -0.8942426059
H                -2.1805942294       -2.5353218442        0.8612452499
C                -0.7086106232       -3.8525548055       -0.0217183895
H                -0.0453770439       -3.8805011088       -0.9059769704
H                -0.0454412338       -3.8865996649        0.8623769244
C                -1.6031863678       -5.0977482170       -0.0259228197
H                -2.2695864481       -5.0703105408        0.8562695045
H                -2.2685542352       -5.0650659843       -0.9087153027
C                -0.8116422064       -6.4078815874       -0.0293654589
H                -0.1631273134       -6.4866683192        0.8603047025
H                -0.1616489625       -6.4810860725       -0.9184354215
C                 1.4839600133        2.5667006202       -0.0048355627
H                 2.1599532968        2.5628040013        0.8702761696
H                 2.1605151102        2.5668525687       -0.8795368697
C                 0.6629990332        3.8588314194       -0.0021369834
H                 0.0005905829        3.8847328966       -0.8871734869
H                -0.0008812451        3.8801075421        0.8819168473
C                 1.5408536090        5.1161593722        0.0018058409
H                 2.2061334269        5.0923230048        0.8848943875
H                 2.2079576006        5.0965809496       -0.8800070972
C                 0.7323810611        6.4158411580        0.0041217513
H                 0.0810810444        6.4811923648        0.8928538910
H                 0.0832647476        6.4857311476       -0.8858604685
C                 4.0533103496       -0.0411893736       -0.0093781775
H                -1.4804623065       -7.2838536123       -0.0326869303
H                 1.3895506700        7.3005978471        0.0071952189
C                 5.4811873707       -0.0856502674       -0.0085856985
C                 6.1623220928       -1.3225629423       -0.0122554568
C                 7.5563856586       -1.3612778776       -0.0113936246
C                 8.2973427938       -0.1740688144       -0.0069337286
C                 7.6325519418        1.0575178042       -0.0033283822
C                 6.2388498773        1.1059689661       -0.0041371587
H                 9.3893099294       -0.2087706440       -0.0062695146
H                 8.2049008206        1.9883736944        0.0001747547
H                 5.5828825720       -2.2477305617       -0.0157588491
H                 5.7186654580        2.0657403927       -0.0012957412
H                 8.0695334013       -2.3260536215       -0.0142611240


