63
Coordinates from ORCA-job opt_EPRII E -1312.128512120745
  C      12.367468     -0.026690     -0.004521
  C      11.143536     -0.068421     -0.003249
  C       5.470105     -0.000456     -0.000953
  C       9.724522     -0.088645     -0.002867
  C       8.990628     -1.335024     -0.006403
  C       7.570759     -1.236349     -0.005487
  C       6.897637     -0.011889     -0.001450
  C       7.634424      1.217416      0.002056
  C       9.026112      1.135702      0.001259
  H       6.974675     -2.149130     -0.008114
  H       9.619812      2.049654      0.003881
  C       9.646865     -2.583921     -0.010645
  H      10.739981     -2.573932     -0.011197
  C       8.960510     -3.917165     -0.014594
  H       8.287887     -4.000132      0.864048
  H       8.286468     -3.994223     -0.892681
  C       9.932017     -5.104805     -0.019413
  H      10.591664     -5.026394     -0.902868
  H      10.593459     -5.032110      0.863189
  C       9.223189     -6.460465     -0.023106
  H       8.579052     -6.573687     -0.912248
  H       8.580972     -6.579530      0.866660
  C       6.888617      2.535280      0.006628
  H       6.209492      2.550134     -0.866458
  H       6.212355      2.545704      0.882021
  C       7.733771      3.811741      0.008515
  H       8.398339      3.820953      0.891977
  H       8.396097      3.824967     -0.876584
  C       6.878227      5.084572      0.012531
  H       6.210709      5.076758     -0.869130
  H       6.212980      5.072748      0.895865
  C       7.710095      6.369491      0.014397
  H       8.360072      6.427193     -0.875761
  H       8.362497      6.423053      0.903036
  C       4.247577      0.004948      0.000113
  H       9.945336     -7.292652     -0.026626
  H       7.068970      7.265890      0.017359
  C       2.821946      0.006500      0.000494
  C       2.097893     -1.206838     -0.000235
  C       0.707780     -1.204952      0.000050
  C      -0.010741      0.009504      0.001091
  C       0.710352      1.222515      0.001864
  C       2.100373      1.221345      0.001582
  H      -3.729592      0.014614      0.001756
  H       0.163384      2.167010      0.002651
  H       2.643820     -2.151876     -0.001021
  H       2.647986      2.165427      0.002150
  H       0.158864     -2.148310     -0.000515
  C      13.789722      0.031477     -0.005118
  C      14.565302     -1.150711     -0.007168
  C      15.953740     -1.090712     -0.007603
  C      16.621353      0.152770     -0.006014
  C      15.849687      1.334610     -0.003972
  C      14.461312      1.275873     -0.003524
  H      20.336530      0.314151     -0.006977
  H      16.356949      2.301040     -0.002743
  H      14.060641     -2.118439     -0.008361
  H      13.874663      2.196192     -0.001939
  H      16.541337     -2.010509     -0.009127
  C      18.050568      0.214344     -0.006425
  C      19.265095      0.266906     -0.006700
  C      -1.441545      0.011220      0.001350
  C      -2.657087      0.013045      0.001570
63
Coordinates from ORCA-job opt_EPRII E -1312.129865617268
  C      12.372602     -0.026547     -0.004339
  C      11.145753     -0.067042     -0.003130
  C       5.463503     -0.001409     -0.000804
  C       9.724479     -0.087014     -0.002798
  C       8.990263     -1.335850     -0.006353
  C       7.567551     -1.239042     -0.005356
  C       6.893236     -0.012224     -0.001359
  C       7.630290      1.220098      0.002008
  C       9.024793      1.139576      0.001200
  H       6.975630     -2.147847     -0.007915
  H       9.614470      2.049406      0.003722
  C       9.650530     -2.586389     -0.010790
  H      10.737641     -2.574761     -0.011585
  C       8.965849     -3.924752     -0.014624
  H       8.299242     -4.009775      0.859772
  H       8.297036     -4.003663     -0.887901
  C       9.942541     -5.112879     -0.020064
  H      10.596911     -5.034209     -0.898666
  H      10.599533     -5.040137      0.857093
  C       9.234191     -6.474027     -0.023627
  H       8.594312     -6.586959     -0.906849
  H       8.597073     -6.593023      0.860796
  C       6.882469      2.540465      0.006452
  H       6.208414      2.556077     -0.862459
  H       6.211188      2.551807      0.877596
  C       7.731326      3.818715      0.008255
  H       8.391548      3.827818      0.886773
  H       8.389282      3.831722     -0.871919
  C       6.875526      5.095832      0.012231
  H       6.212734      5.089395     -0.864394
  H       6.215034      5.085497      0.890554
  C       7.711681      6.383495      0.014014
  H       8.357211      6.439039     -0.870464
  H       8.359716      6.434966      0.896904
  C       4.238181      0.004761      0.000306
  H       9.953402     -7.299807     -0.027587
  H       7.075943      7.275403      0.016970
  C       2.809491      0.006795      0.000744
  C       2.083645     -1.209738     -0.000113
  C       0.689795     -1.207679      0.000199
  C      -0.029864      0.010221      0.001376
  C       0.692726      1.226477      0.002252
  C       2.086514      1.225051      0.001949
  H      -3.749501      0.015613      0.002097
  H       0.148340      2.166072      0.003151
  H       2.627111     -2.149805     -0.001026
  H       2.631876      2.163966      0.002605
  H       0.143162     -2.145970     -0.000471
  C      13.798002      0.030535     -0.004869
  C      14.574309     -1.155510     -0.006677
  C      15.966519     -1.096505     -0.007058
  C      16.636314      0.149861     -0.005672
  C      15.864172      1.335627     -0.003915
  C      14.472007      1.277779     -0.003517
  H      20.352416      0.308067     -0.006522
  H      16.369950      2.296595     -0.002861
  H      14.070925     -2.117611     -0.007719
  H      13.888594      2.193584     -0.002150
  H      16.550785     -2.011865     -0.008406
  C      18.068803      0.210345     -0.006040
  C      19.287786      0.262078     -0.006279
  C      -1.463901      0.012086      0.001658
  C      -2.683848      0.013996      0.001896
63
Coordinates from ORCA-job opt_EPRII E -1312.129921822974
  C      12.372657     -0.025776     -0.004288
  C      11.145296     -0.065379     -0.003182
  C       5.461914     -0.003056     -0.000760
  C       9.723529     -0.085613     -0.002939
  C       8.990124     -1.335213     -0.006435
  C       7.566772     -1.240698     -0.005345
  C       6.892137     -0.013380     -0.001402
  C       7.628126      1.219940      0.001838
  C       9.023352      1.141340      0.001004
  H       6.976222     -2.150067     -0.007809
  H       9.611692      2.051683      0.003465
  C       9.652531     -2.585412     -0.010969
  H      10.739252     -2.573257     -0.011969
  C       8.967425     -3.925194     -0.014635
  H       8.303601     -4.011255      0.860563
  H       8.300464     -4.004892     -0.888040
  C       9.947602     -5.112264     -0.020781
  H      10.599823     -5.033685     -0.899991
  H      10.603432     -5.039867      0.856277
  C       9.238125     -6.475009     -0.024142
  H       8.598607     -6.586656     -0.907019
  H       8.602376     -6.592984      0.860634
  C       6.878605      2.540426      0.006177
  H       6.206581      2.556519     -0.863273
  H       6.209306      2.552361      0.877813
  C       7.730832      3.818093      0.007901
  H       8.389634      3.826986      0.886529
  H       8.387296      3.830835     -0.872434
  C       6.874160      5.096363      0.011871
  H       6.212967      5.091023     -0.864964
  H       6.215353      5.087189      0.890469
  C       7.713845      6.383998      0.013561
  H       8.358506      6.437130     -0.870943
  H       8.361158      6.433074      0.896359
  C       4.236121      0.004073      0.000414
  H       9.957908     -7.299611     -0.028630
  H       7.079088      7.275951      0.016559
  C       2.806827      0.006789      0.000938
  C       2.080810     -1.210469      0.000030
  C       0.686112     -1.207925      0.000437
  C      -0.032635      0.011289      0.001766
  C       0.689968      1.228304      0.002703
  C       2.084618      1.226300      0.002306
  H      -3.753751      0.017923      0.002755
  H       0.145768      2.167614      0.003726
  H       2.624215     -2.150190     -0.000998
  H       2.630606      2.164474      0.003013
  H       0.138924     -2.145499     -0.000274
  C      13.798708      0.030654     -0.004705
  C      14.574195     -1.156753     -0.006195
  C      15.967280     -1.098373     -0.006436
  C      16.637141      0.148722     -0.005214
  C      15.865955      1.335902     -0.003761
  C      14.472908      1.278584     -0.003508
  H      20.354803      0.305130     -0.005629
  H      16.372339      2.296164     -0.002825
  H      14.070015     -2.118060     -0.007099
  H      13.889607      2.194067     -0.002371
  H      16.551344     -2.013457     -0.007544
  C      18.070304      0.208528     -0.005414
  C      19.289897      0.259705     -0.005511
  C      -1.467318      0.013667      0.002151
  C      -2.687849      0.015973      0.002477
63
Coordinates from ORCA-job opt_EPRII E -1312.129936824397
  C      12.372538     -0.025518     -0.004114
  C      11.145102     -0.064148     -0.003066
  C       5.462010     -0.004906     -0.000595
  C       9.723174     -0.084794     -0.002846
  C       8.990710     -1.334848     -0.006311
  C       7.567169     -1.242282     -0.005155
  C       6.892416     -0.014858     -0.001277
  C       7.627176      1.219031      0.001816
  C       9.022709      1.142108      0.000991
  H       6.977683     -2.152334     -0.007531
  H       9.610052      2.053053      0.003371
  C       9.654691     -2.584520     -0.010920
  H      10.741385     -2.572149     -0.012050
  C       8.969094     -3.924969     -0.014466
  H       8.307601     -4.011822      0.862146
  H       8.303301     -4.005033     -0.888450
  C       9.951566     -5.111077     -0.021566
  H      10.601969     -5.032637     -0.901984
  H      10.606811     -5.039249      0.855829
  C       9.241113     -6.474569     -0.024753
  H       8.601454     -6.584699     -0.907682
  H       8.606482     -6.591463      0.860932
  C       6.875730      2.539181      0.005978
  H       6.205198      2.555146     -0.864408
  H       6.207800      2.551163      0.878443
  C       7.728949      3.817149      0.007617
  H       8.386624      3.826718      0.886905
  H       8.384291      3.830444     -0.873369
  C       6.870372      5.095048      0.011490
  H       6.210376      5.089854     -0.866091
  H       6.212785      5.086164      0.890850
  C       7.711211      6.383217      0.013059
  H       8.355289      6.434844     -0.871933
  H       8.358039      6.430882      0.896265
  C       4.236176      0.003600      0.000598
  H       9.961619     -7.298611     -0.029951
  H       7.075834      7.274779      0.016042
  C       2.806702      0.007322      0.001159
  C       2.080433     -1.209875      0.000442
  C       0.685506     -1.206463      0.000878
  C      -0.031798      0.013659      0.002042
  C       0.690947      1.230634      0.002780
  C       2.085835      1.227684      0.002357
  H      -3.753270      0.022555      0.003085
  H       0.146998      2.170117      0.003671
  H       2.623717     -2.149704     -0.000462
  H       2.632888      2.165279      0.002908
  H       0.137319     -2.143482      0.000316
  C      13.798813      0.030335     -0.004470
  C      14.573282     -1.157803     -0.005991
  C      15.966622     -1.099988     -0.006173
  C      16.636301      0.147259     -0.004858
  C      15.866230      1.335211     -0.003390
  C      14.472923      1.278382     -0.003199
  H      20.354391      0.302038     -0.005114
  H      16.373349      2.295112     -0.002394
  H      14.068197     -2.118673     -0.006960
  H      13.889483      2.193818     -0.002051
  H      16.550742     -2.015065     -0.007303
  C      18.069708      0.206458     -0.004996
  C      19.289365      0.257137     -0.005042
  C      -1.466699      0.016949      0.002449
  C      -2.687271      0.019982      0.002792
63
Coordinates from ORCA-job opt_EPRII E -1312.129939464515
  C      12.372477     -0.025564     -0.004044
  C      11.145108     -0.063564     -0.003070
  C       5.462410     -0.006102     -0.000536
  C       9.723182     -0.084590     -0.002891
  C       8.991259     -1.334843     -0.006276
  C       7.567732     -1.243072     -0.005081
  C       6.892844     -0.015775     -0.001273
  C       7.626983      1.218295      0.001727
  C       9.022535      1.142094      0.000892
  H       6.978721     -2.153452     -0.007367
  H       9.609459      2.053361      0.003224
  C       9.655844     -2.584219     -0.010865
  H      10.742560     -2.571811     -0.012029
  C       8.970175     -3.924793     -0.014291
  H       8.309854     -4.011975      0.863209
  H       8.304485     -4.004813     -0.888387
  C       9.953132     -5.110617     -0.022252
  H      10.602540     -5.032194     -0.903464
  H      10.608516     -5.039174      0.855130
  C       9.242440     -6.474251     -0.025261
  H       8.602376     -6.583602     -0.908055
  H       8.608557     -6.590736      0.861076
  C       6.874713      2.538127      0.005786
  H       6.204716      2.553851     -0.865045
  H       6.207239      2.549971      0.878631
  C       7.727523      3.816523      0.007381
  H       8.384760      3.826634      0.887044
  H       8.382443      3.830280     -0.873966
  C       6.868014      5.093897      0.011185
  H       6.208444      5.088514     -0.866776
  H       6.210868      5.084927      0.890933
  C       7.708604      6.382487      0.012670
  H       8.352427      6.433715     -0.872596
  H       8.355242      6.429826      0.896097
  C       4.236663      0.003424      0.000690
  H       9.963255     -7.298115     -0.031097
  H       7.072565      7.273657      0.015638
  C       2.807192      0.007777      0.001302
  C       2.080649     -1.209111      0.000522
  C       0.685789     -1.205099      0.001015
  C      -0.030686      0.015359      0.002302
  C       0.692301      1.232026      0.003112
  C       2.087129      1.228449      0.002631
  H      -3.752083      0.025799      0.003501
  H       0.148562      2.171688      0.004102
  H       2.623790     -2.149082     -0.000475
  H       2.634840      2.165720      0.003238
  H       0.136968     -2.141804      0.000402
  C      13.798767      0.030092     -0.004323
  C      14.572803     -1.158167     -0.005546
  C      15.966088     -1.100550     -0.005638
  C      16.635636      0.146613     -0.004530
  C      15.866026      1.334696     -0.003353
  C      14.472772      1.278041     -0.003249
  H      20.353682      0.300802     -0.004523
  H      16.373478      2.294477     -0.002509
  H      14.067309     -2.118882     -0.006354
  H      13.889183      2.193443     -0.002323
  H      16.550320     -2.015614     -0.006538
  C      18.069062      0.205599     -0.004566
  C      19.288627      0.256116     -0.004527
  C      -1.465593      0.019272      0.002769
  C      -2.686067      0.022802      0.003163
63
Coordinates from ORCA-job opt_EPRII E -1312.129940090421
  C      12.372489     -0.025694     -0.003889
  C      11.145150     -0.063215     -0.002922
  C       5.462565     -0.006914     -0.000347
  C       9.723233     -0.084547     -0.002710
  C       8.991612     -1.334937     -0.006044
  C       7.568096     -1.243467     -0.004816
  C       6.893004     -0.016325     -0.001072
  C       7.626849      1.217846      0.001815
  C       9.022388      1.141947      0.000985
  H       6.979314     -2.154004     -0.007037
  H       9.609097      2.053376      0.003244
  C       9.656444     -2.584161     -0.010623
  H      10.743169     -2.571699     -0.011790
  C       8.970918     -3.924775     -0.013973
  H       8.311313     -4.012213      0.864083
  H       8.304814     -4.004599     -0.887804
  C       9.953853     -5.110550     -0.022881
  H      10.602571     -5.031957     -0.904622
  H      10.609737     -5.039380      0.854189
  C       9.243243     -6.474227     -0.025747
  H       8.602628     -6.583208     -0.908211
  H       8.610016     -6.590784      0.861075
  C       6.874312      2.537488      0.005734
  H       6.204452      2.553007     -0.865237
  H       6.206907      2.549285      0.878661
  C       7.726669      3.816139      0.007239
  H       8.383786      3.826556      0.887031
  H       8.381500      3.830052     -0.874213
  C       6.866889      5.093260      0.010916
  H       6.207411      5.087681     -0.867152
  H       6.209834      5.084269      0.890772
  C       7.707141      6.382065      0.012271
  H       8.350874      6.433206     -0.873088
  H       8.353723      6.429474      0.895760
  C       4.236866      0.003382      0.000853
  H       9.964186     -7.297992     -0.032279
  H       7.070770      7.273014      0.015172
  C       2.807403      0.008084      0.001450
  C       2.080609     -1.208579      0.000892
  C       0.685809     -1.204208      0.001358
  C      -0.030286      0.016401      0.002394
  C       0.692950      1.232841      0.002976
  C       2.087722      1.228900      0.002522
  H      -3.751620      0.027739      0.003502
  H       0.149364      2.172613      0.003768
  H       2.623629     -2.148642      0.000085
  H       2.635780      2.165988      0.002952
  H       0.136645     -2.140732      0.000917
  C      13.798775      0.029931     -0.004164
  C      14.572713     -1.158310     -0.005597
  C      15.965943     -1.100729     -0.005685
  C      16.635454      0.146381     -0.004361
  C      15.865940      1.334446     -0.002981
  C      14.472741      1.277822     -0.002884
  H      20.353446      0.300448     -0.004355
  H      16.373507      2.294185     -0.001977
  H      14.067080     -2.118971     -0.006570
  H      13.889054      2.193181     -0.001801
  H      16.550261     -2.015759     -0.006746
  C      18.068874      0.205329     -0.004397
  C      19.288394      0.255839     -0.004359
  C      -1.465183      0.020681      0.002826
  C      -2.685611      0.024498      0.003190
