63
Coordinates from ORCA-job opt_cc-pVDZ E -1312.049838308860
  C      12.367468     -0.026690     -0.004521
  C      11.143536     -0.068421     -0.003249
  C       5.470105     -0.000456     -0.000953
  C       9.724522     -0.088645     -0.002867
  C       8.990628     -1.335024     -0.006403
  C       7.570759     -1.236349     -0.005487
  C       6.897637     -0.011889     -0.001450
  C       7.634424      1.217416      0.002056
  C       9.026112      1.135702      0.001259
  H       6.974675     -2.149130     -0.008114
  H       9.619812      2.049654      0.003881
  C       9.646865     -2.583921     -0.010645
  H      10.739981     -2.573932     -0.011197
  C       8.960510     -3.917165     -0.014594
  H       8.287887     -4.000132      0.864048
  H       8.286468     -3.994223     -0.892681
  C       9.932017     -5.104805     -0.019413
  H      10.591664     -5.026394     -0.902868
  H      10.593459     -5.032110      0.863189
  C       9.223189     -6.460465     -0.023106
  H       8.579052     -6.573687     -0.912248
  H       8.580972     -6.579530      0.866660
  C       6.888617      2.535280      0.006628
  H       6.209492      2.550134     -0.866458
  H       6.212355      2.545704      0.882021
  C       7.733771      3.811741      0.008515
  H       8.398339      3.820953      0.891977
  H       8.396097      3.824967     -0.876584
  C       6.878227      5.084572      0.012531
  H       6.210709      5.076758     -0.869130
  H       6.212980      5.072748      0.895865
  C       7.710095      6.369491      0.014397
  H       8.360072      6.427193     -0.875761
  H       8.362497      6.423053      0.903036
  C       4.247577      0.004948      0.000113
  H       9.945336     -7.292652     -0.026626
  H       7.068970      7.265890      0.017359
  C       2.821946      0.006500      0.000494
  C       2.097893     -1.206838     -0.000235
  C       0.707780     -1.204952      0.000050
  C      -0.010741      0.009504      0.001091
  C       0.710352      1.222515      0.001864
  C       2.100373      1.221345      0.001582
  H      -3.729592      0.014614      0.001756
  H       0.163384      2.167010      0.002651
  H       2.643820     -2.151876     -0.001021
  H       2.647986      2.165427      0.002150
  H       0.158864     -2.148310     -0.000515
  C      13.789722      0.031477     -0.005118
  C      14.565302     -1.150711     -0.007168
  C      15.953740     -1.090712     -0.007603
  C      16.621353      0.152770     -0.006014
  C      15.849687      1.334610     -0.003972
  C      14.461312      1.275873     -0.003524
  H      20.336530      0.314151     -0.006977
  H      16.356949      2.301040     -0.002743
  H      14.060641     -2.118439     -0.008361
  H      13.874663      2.196192     -0.001939
  H      16.541337     -2.010509     -0.009127
  C      18.050568      0.214344     -0.006425
  C      19.265095      0.266906     -0.006700
  C      -1.441545      0.011220      0.001350
  C      -2.657087      0.013045      0.001570
63
Coordinates from ORCA-job opt_cc-pVDZ E -1312.049838155028
  C      12.367466     -0.027254     -0.004271
  C      11.143539     -0.069299     -0.003040
  C       5.470131     -0.000662     -0.000815
  C       9.724526     -0.089437     -0.002678
  C       8.990499     -1.335723     -0.006213
  C       7.570641     -1.236827     -0.005284
  C       6.897657     -0.012283     -0.001347
  C       7.634582      1.216940      0.002004
  C       9.026256      1.135002      0.001260
  H       6.974283     -2.149427     -0.007828
  H       9.620187      2.048805      0.003763
  C       9.646544     -2.584699     -0.010513
  H      10.739691     -2.574825     -0.011224
  C       8.960010     -3.917865     -0.014285
  H       8.287727     -4.000766      0.864628
  H       8.285669     -3.994755     -0.892161
  C       9.931394     -5.105586     -0.019539
  H      10.590733     -5.027211     -0.903247
  H      10.593189     -5.033054      0.862831
  C       9.222319     -6.461124     -0.023062
  H       8.577847     -6.574132     -0.911994
  H       8.580458     -6.580123      0.866977
  C       6.889022      2.534941      0.006282
  H       6.210012      2.549779     -0.866924
  H       6.212620      2.545607      0.881592
  C       7.734368      3.811262      0.008082
  H       8.398869      3.820544      0.891619
  H       8.396779      3.824334     -0.876981
  C       6.878874      5.084153      0.011857
  H       6.211424      5.076210     -0.869877
  H       6.213550      5.072435      0.895157
  C       7.710870      6.368993      0.013614
  H       8.360868      6.426451     -0.876552
  H       8.363212      6.422506      0.902310
  C       4.247600      0.004800      0.000267
  H       9.944286     -7.293461     -0.026932
  H       7.069825      7.265432      0.016449
  C       2.821974      0.006564      0.000675
  C       2.097717     -1.206649     -0.001354
  C       0.707606     -1.204525     -0.001048
  C      -0.010713      0.010051      0.001310
  C       0.710586      1.222936      0.003369
  C       2.100604      1.221532      0.003068
  H      -3.729564      0.015721      0.002046
  H       0.163795      2.167534      0.005200
  H       2.643471     -2.151786     -0.003192
  H       2.648407      2.165507      0.004660
  H       0.158546     -2.147798     -0.002644
  C      13.789690      0.031504     -0.004822
  C      14.565842     -1.150310     -0.007823
  C      15.954243     -1.089616     -0.008291
  C      16.621265      0.154185     -0.005806
  C      15.849032      1.335648     -0.002864
  C      14.460686      1.276220     -0.002390
  H      20.336370      0.317181     -0.006913
  H      16.355741      2.302369     -0.000948
  H      14.061634     -2.118278     -0.009746
  H      13.873587      2.196248     -0.000104
  H      16.542333     -2.009094     -0.010582
  C      18.050447      0.216424     -0.006272
  C      19.264950      0.269530     -0.006594
  C      -1.441514      0.012000      0.001596
  C      -2.657054      0.014002      0.001839
