63
Coordinates from ORCA-job opt E -1312.049834587132
  C      12.367592     -0.025121     -0.005055
  C      11.143516     -0.065571     -0.003091
  C       5.469965      0.000164     -0.000860
  C       9.724428     -0.085636     -0.001988
  C       8.990947     -1.332264     -0.004597
  C       7.571180     -1.234603     -0.004335
  C       6.897570     -0.010526     -0.001156
  C       7.633835      1.219230      0.001830
  C       9.025636      1.138500      0.001412
  H       6.976365     -2.148083     -0.006442
  H       9.618395      2.053009      0.003336
  C       9.648268     -2.580728     -0.006648
  H      10.741775     -2.570134     -0.006087
  C       8.962822     -3.914226     -0.008547
  H       8.289115     -3.996019      0.869672
  H       8.289579     -3.993943     -0.887314
  C       9.934837     -5.100882     -0.009597
  H      10.595360     -5.023915     -0.892993
  H      10.595356     -5.025429      0.873929
  C       9.227340     -6.456809     -0.010736
  H       8.583968     -6.572870     -0.900262
  H       8.584084     -6.574381      0.878675
  C       6.886556      2.536546      0.004661
  H       6.207286      2.549836     -0.868804
  H       6.210054      2.547844      0.880332
  C       7.730810      3.813338      0.004708
  H       8.395334      3.824131      0.888791
  H       8.393542      3.825194     -0.880701
  C       6.875218      5.085593      0.006284
  H       6.207746      5.076437     -0.875929
  H       6.209688      5.075624      0.889957
  C       7.706740      6.370139      0.005945
  H       8.357126      6.426652     -0.884294
  H       8.359148      6.425867      0.894756
  C       4.247408      0.005293      0.000069
  H       9.950429     -7.288043     -0.011486
  H       7.065522      7.266267      0.007061
  C       2.821725      0.006250      0.000155
  C       2.098345     -1.207100     -0.026231
  C       0.708294     -1.205940     -0.026298
  C      -0.010828      0.007844      0.000149
  C       0.709640      1.220907      0.026632
  C       2.099585      1.220396      0.026604
  H      -3.729805      0.011363      0.000138
  H       0.162122      2.164869      0.047653
  H       2.644831     -2.151614     -0.047263
  H       2.646650      2.164662      0.047708
  H       0.159786     -2.149317     -0.047298
  C      13.789982      0.030865     -0.006241
  C      14.563398     -1.152339     -0.033105
  C      15.951874     -1.094939     -0.034266
  C      16.621636      0.147027     -0.008504
  C      15.852075      1.329913      0.018385
  C      14.463678      1.273734      0.019439
  H      20.337203      0.302453     -0.011733
  H      16.361455      2.295067      0.038832
  H      14.057010     -2.119043     -0.053804
  H      13.878704      2.194834      0.040783
  H      16.537579     -2.015637     -0.055623
  C      18.051053      0.206171     -0.009795
  C      19.265622      0.256760     -0.010806
  C      -1.441726      0.008893      0.000141
  C      -2.657216      0.010219      0.000143
63
Coordinates from ORCA-job opt E -1312.049838349985
  C      12.367491     -0.025866     -0.004304
  C      11.143529     -0.067041     -0.002633
  C       5.470055     -0.000150     -0.000903
  C       9.724494     -0.087280     -0.001828
  C       8.990801     -1.333798     -0.005400
  C       7.570952     -1.235556     -0.004966
  C       6.897610     -0.011254     -0.001045
  C       7.634164      1.218228      0.002783
  C       9.025888      1.136947      0.002290
  H       6.975400     -2.148671     -0.007852
  H       9.619168      2.051162      0.005027
  C       9.647466     -2.582532     -0.009317
  H      10.740586     -2.572299     -0.009149
  C       8.961494     -3.915911     -0.013700
  H       8.288086     -3.999024      0.864370
  H       8.288139     -3.993366     -0.892330
  C       9.933200     -5.103285     -0.017500
  H      10.593559     -5.024792     -0.900467
  H      10.593844     -5.030194      0.865707
  C       9.224925     -6.459128     -0.021550
  H       8.581517     -6.572813     -0.911184
  H       8.581900     -6.578297      0.867639
  C       6.887785      2.535840      0.007390
  H       6.208732      2.550564     -0.865779
  H       6.211421      2.546021      0.882749
  C       7.732531      3.812526      0.009465
  H       8.396934      3.821786      0.893111
  H       8.395044      3.825806     -0.875548
  C       6.876986      5.085205      0.013304
  H       6.209640      5.077469     -0.868533
  H       6.211563      5.073476      0.896561
  C       7.708663      6.370114      0.015324
  H       8.358912      6.428017     -0.874651
  H       8.360909      6.423959      0.904096
  C       4.247525      0.005136     -0.000124
  H       9.947463     -7.290964     -0.024273
  H       7.067449      7.266446      0.018088
  C       2.821874      0.006384     -0.000099
  C       2.098138     -1.207116     -0.002313
  C       0.708036     -1.205590     -0.002403
  C      -0.010786      0.008675     -0.000339
  C       0.709999      1.221861      0.001871
  C       2.100005      1.221028      0.002041
  H      -3.729656      0.012973     -0.000737
  H       0.162762      2.166199      0.003551
  H       2.644329     -2.152001     -0.004002
  H       2.647329      2.165283      0.003826
  H       0.159328     -2.149069     -0.004178
  C      13.789806      0.031311     -0.005347
  C      14.564413     -1.151483     -0.008441
  C      15.952892     -1.092673     -0.009508
  C      16.621491      0.150252     -0.007651
  C      15.850781      1.332710     -0.004643
  C      14.462375      1.275149     -0.003518
  H      20.336806      0.308897     -0.010602
  H      16.358997      2.298644     -0.003120
  H      14.058984     -2.118817     -0.010171
  H      13.876485      2.195945     -0.001173
  H      16.539643     -2.013004     -0.011928
  C      18.050785      0.210707     -0.008829
  C      19.265344      0.262360     -0.009752
  C      -1.441619      0.010051     -0.000489
  C      -2.657153      0.011622     -0.000617
63
Coordinates from ORCA-job opt E -1312.049838289307
  C      12.367468     -0.026690     -0.004521
  C      11.143536     -0.068421     -0.003249
  C       5.470105     -0.000456     -0.000953
  C       9.724522     -0.088645     -0.002867
  C       8.990628     -1.335024     -0.006403
  C       7.570759     -1.236349     -0.005487
  C       6.897637     -0.011889     -0.001450
  C       7.634424      1.217416      0.002056
  C       9.026112      1.135702      0.001259
  H       6.974675     -2.149130     -0.008114
  H       9.619812      2.049654      0.003881
  C       9.646865     -2.583921     -0.010645
  H      10.739981     -2.573932     -0.011197
  C       8.960510     -3.917165     -0.014594
  H       8.287887     -4.000132      0.864048
  H       8.286468     -3.994223     -0.892681
  C       9.932017     -5.104805     -0.019413
  H      10.591664     -5.026394     -0.902868
  H      10.593459     -5.032110      0.863189
  C       9.223189     -6.460465     -0.023106
  H       8.579052     -6.573687     -0.912248
  H       8.580972     -6.579530      0.866660
  C       6.888617      2.535280      0.006628
  H       6.209492      2.550134     -0.866458
  H       6.212355      2.545704      0.882021
  C       7.733771      3.811741      0.008515
  H       8.398339      3.820953      0.891977
  H       8.396097      3.824967     -0.876584
  C       6.878227      5.084572      0.012531
  H       6.210709      5.076758     -0.869130
  H       6.212980      5.072748      0.895865
  C       7.710095      6.369491      0.014397
  H       8.360072      6.427193     -0.875761
  H       8.362497      6.423053      0.903036
  C       4.247577      0.004948      0.000113
  H       9.945336     -7.292652     -0.026626
  H       7.068970      7.265890      0.017359
  C       2.821946      0.006500      0.000494
  C       2.097893     -1.206838     -0.000235
  C       0.707780     -1.204952      0.000050
  C      -0.010741      0.009504      0.001091
  C       0.710352      1.222515      0.001864
  C       2.100373      1.221345      0.001582
  H      -3.729592      0.014614      0.001756
  H       0.163384      2.167010      0.002651
  H       2.643820     -2.151876     -0.001021
  H       2.647986      2.165427      0.002150
  H       0.158864     -2.148310     -0.000515
  C      13.789722      0.031477     -0.005118
  C      14.565302     -1.150711     -0.007168
  C      15.953740     -1.090712     -0.007603
  C      16.621353      0.152770     -0.006014
  C      15.849687      1.334610     -0.003972
  C      14.461312      1.275873     -0.003524
  H      20.336530      0.314151     -0.006977
  H      16.356949      2.301040     -0.002743
  H      14.060641     -2.118439     -0.008361
  H      13.874663      2.196192     -0.001939
  H      16.541337     -2.010509     -0.009127
  C      18.050568      0.214344     -0.006425
  C      19.265095      0.266906     -0.006700
  C      -1.441545      0.011220      0.001350
  C      -2.657087      0.013045      0.001570
