46
Coordinates from ORCA-job opt_EPRII E -739.769690811428
  C       4.260893     -0.079127     -0.043591
  C       0.045387     -0.014079     -0.133807
  C       0.704757     -1.253015     -0.085632
  C       2.101931     -1.235147     -0.057350
  C       2.827985     -0.025998     -0.075534
  C       2.154195      1.220084     -0.123807
  C       0.753332      1.188758     -0.152097
  H       2.668495     -2.165884     -0.020281
  H       0.193946      2.124579     -0.189644
  C      -0.111949     -2.534903     -0.064556
  H      -0.786166     -2.529706     -0.941570
  H      -0.783040     -2.503561      0.814548
  C       0.667170     -3.852699     -0.045898
  H       1.334018     -3.903925     -0.926359
  H       1.326150     -3.884500      0.841308
  C      -0.246311     -5.084124     -0.035413
  H      -0.916771     -5.033046      0.842757
  H      -0.906915     -5.055142     -0.922002
  C       0.524988     -6.406261     -0.014444
  H       1.168051     -6.480501      0.879526
  H       1.177898     -6.502965     -0.899066
  C       2.952208      2.510100     -0.142411
  H       3.610046      2.523794      0.746200
  H       3.648976      2.474747     -1.000122
  C       2.153064      3.815083     -0.196314
  H       1.507351      3.823318     -1.093673
  H       1.473136      3.874674      0.673437
  C       3.051950      5.057494     -0.215340
  H       3.705089      5.050199      0.677686
  H       3.731774      5.003740     -1.086612
  C       2.270402      6.375297     -0.262074
  H       1.591515      6.428490      0.610416
  H       1.615926      6.380765     -1.154594
  C       3.165360      7.619459     -0.283638
  H       3.840573      7.577327     -1.158008
  H       3.819142      7.623303      0.607847
  C       2.361317      8.944123     -0.328166
  H       1.709747      8.920359     -1.221882
  H       1.689242      8.967418      0.550198
  C       3.214355     10.168422     -0.351043
  H       3.591753     10.606491      0.577387
  H       3.614830     10.555345     -1.292458
  C       5.475492     -0.133120     -0.017706
  H       6.546487     -0.180814      0.006549
  H      -0.157012     -7.272012     -0.007233
  H      -1.048373      0.011018     -0.157638
46
Coordinates from ORCA-job opt_EPRII E -739.770791625274
  C       4.263830     -0.085321     -0.046714
  C       0.040126     -0.015886     -0.141346
  C       0.700415     -1.258723     -0.090578
  C       2.100810     -1.242092     -0.061162
  C       2.828647     -0.030490     -0.080457
  C       2.155718      1.219207     -0.130638
  C       0.751301      1.189798     -0.160567
  H       2.663072     -2.168927     -0.022337
  H       0.196177      2.121560     -0.199352
  C      -0.118842     -2.542748     -0.066787
  H      -0.787869     -2.540503     -0.939634
  H      -0.785262     -2.510107      0.807666
  C       0.663552     -3.862793     -0.044397
  H       1.325930     -3.916195     -0.919727
  H       1.318108     -3.891730      0.837893
  C      -0.250542     -5.098363     -0.030097
  H      -0.916280     -5.046129      0.842873
  H      -0.906500     -5.073563     -0.911615
  C       0.524641     -6.423606     -0.004834
  H       1.163411     -6.492936      0.883526
  H       1.173209     -6.520947     -0.883403
  C       2.956652      2.511350     -0.148501
  H       3.609253      2.524883      0.735874
  H       3.648367      2.477289     -1.001990
  C       2.154949      3.818645     -0.201440
  H       1.514038      3.828244     -1.094148
  H       1.479123      3.876874      0.663264
  C       3.055563      5.064110     -0.218136
  H       3.703799      5.055770      0.670178
  H       3.731000      5.012749     -1.084479
  C       2.271376      6.384678     -0.262617
  H       1.597088      6.435446      0.604973
  H       1.621909      6.391676     -1.150364
  C       3.168450      7.632159     -0.281182
  H       3.838966      7.592921     -1.150335
  H       3.817084      7.634568      0.605281
  C       2.361623      8.959512     -0.322874
  H       1.714909      8.938415     -1.211419
  H       1.694012      8.980953      0.550028
  C       3.217219     10.187595     -0.342572
  H       3.590673     10.621909      0.580390
  H       3.614046     10.575700     -1.276319
  C       5.482414     -0.139233     -0.019252
  H       6.546565     -0.186486      0.006142
  H      -0.151987     -7.284896      0.005132
  H      -1.048346      0.009516     -0.166053
46
Coordinates from ORCA-job opt_EPRII E -739.770849318357
  C       4.264361     -0.089016     -0.047260
  C       0.039206     -0.013954     -0.144535
  C       0.698691     -1.258227     -0.092255
  C       2.099786     -1.244110     -0.061926
  C       2.828702     -0.032467     -0.081525
  C       2.157811      1.218557     -0.133128
  C       0.752582      1.191701     -0.164234
  H       2.660020     -2.171722     -0.022319
  H       0.199346      2.124116     -0.204339
  C      -0.122648     -2.541933     -0.067730
  H      -0.789622     -2.540873     -0.941075
  H      -0.787156     -2.509045      0.807077
  C       0.662928     -3.861793     -0.044141
  H       1.323417     -3.915975     -0.919804
  H       1.316309     -3.889387      0.838031
  C      -0.252259     -5.098377     -0.027882
  H      -0.915962     -5.046137      0.845551
  H      -0.906988     -5.075849     -0.909298
  C       0.526331     -6.423871     -0.001162
  H       1.164866     -6.489590      0.886813
  H       1.173707     -6.520123     -0.879895
  C       2.960954      2.510390     -0.151375
  H       3.611840      2.524130      0.733190
  H       3.650205      2.476705     -1.005790
  C       2.156201      3.817483     -0.203734
  H       1.516843      3.827399     -1.096544
  H       1.481843      3.874884      0.661134
  C       3.058183      5.063776     -0.219513
  H       3.704802      5.055456      0.668938
  H       3.731966      5.013897     -1.086152
  C       2.270649      6.384166     -0.262801
  H       1.598114      6.433507      0.605118
  H       1.622913      6.391457     -1.150723
  C       3.169170      7.632551     -0.280085
  H       3.837983      7.595070     -1.149515
  H       3.816008      7.634891      0.606606
  C       2.358913      8.959578     -0.320413
  H       1.713887      8.939475     -1.209036
  H       1.692881      8.980081      0.552528
  C       3.215778     10.188894     -0.338704
  H       3.586644     10.623799      0.584513
  H       3.610020     10.579743     -1.271895
  C       5.483524     -0.142775     -0.019350
  H       6.547846     -0.190029      0.006418
  H      -0.149436     -7.285072      0.010406
  H      -1.048765      0.012474     -0.170288
46
Coordinates from ORCA-job opt_EPRII E -739.770863448604
  C       4.264194     -0.089960     -0.047514
  C       0.039177     -0.013574     -0.147726
  C       0.698459     -1.258057     -0.093820
  C       2.099657     -1.245023     -0.062635
  C       2.828367     -0.033195     -0.082887
  C       2.158439      1.218053     -0.135846
  C       0.753049      1.192077     -0.167982
  H       2.659040     -2.173074     -0.021919
  H       0.200327      2.124769     -0.209265
  C      -0.124159     -2.541621     -0.068359
  H      -0.789997     -2.541552     -0.942427
  H      -0.787153     -2.508453      0.807449
  C       0.662988     -3.861481     -0.043971
  H       1.321674     -3.916770     -0.920801
  H       1.315885     -3.888286      0.838457
  C      -0.253410     -5.098035     -0.025621
  H      -0.915204     -5.045435      0.849145
  H      -0.907751     -5.077120     -0.907274
  C       0.527034     -6.423642      0.001951
  H       1.166091     -6.486413      0.889804
  H       1.173129     -6.519203     -0.877842
  C       2.962762      2.509850     -0.154567
  H       3.612969      2.523653      0.730343
  H       3.649875      2.476623     -1.010583
  C       2.156326      3.816900     -0.205871
  H       1.517951      3.827586     -1.099246
  H       1.483206      3.873664      0.659872
  C       3.059482      5.063367     -0.220781
  H       3.705083      5.054685      0.668286
  H       3.731981      5.014594     -1.088350
  C       2.270085      6.383693     -0.262791
  H       1.598886      6.432041      0.606076
  H       1.623497      6.391610     -1.151408
  C       3.169809      7.632258     -0.278966
  H       3.837392      7.596010     -1.149268
  H       3.815407      7.634259      0.608511
  C       2.357699      8.959041     -0.318071
  H       1.713829      8.940170     -1.207443
  H       1.692763      8.979126      0.555600
  C       3.215998     10.188295     -0.335137
  H       3.585351     10.623251      0.588786
  H       3.608625     10.581090     -1.268313
  C       5.483421     -0.142006     -0.018656
  H       6.547913     -0.188031      0.007929
  H      -0.148930     -7.284779      0.015297
  H      -1.048824      0.012899     -0.174272
46
Coordinates from ORCA-job opt_EPRII E -739.770865366872
  C       4.264200     -0.089605     -0.047095
  C       0.039574     -0.013946     -0.148820
  C       0.698958     -1.258173     -0.094082
  C       2.100043     -1.245126     -0.062366
  C       2.828355     -0.033172     -0.082816
  C       2.158401      1.217879     -0.136681
  C       0.753119      1.191730     -0.169388
  H       2.659395     -2.173234     -0.021099
  H       0.200205      2.124366     -0.211370
  C      -0.123917     -2.541673     -0.068275
  H      -0.789663     -2.541711     -0.942482
  H      -0.786280     -2.508452      0.808089
  C       0.663069     -3.861727     -0.044012
  H       1.320861     -3.917477     -0.921571
  H       1.316105     -3.888589      0.838392
  C      -0.253819     -5.097943     -0.024795
  H      -0.914637     -5.045181      0.850789
  H      -0.908431     -5.077244     -0.906341
  C       0.526650     -6.423714      0.002512
  H       1.166321     -6.485746      0.890063
  H       1.171849     -6.519104     -0.878048
  C       2.962760      2.509732     -0.155911
  H       3.613234      2.523575      0.728858
  H       3.648834      2.476671     -1.012844
  C       2.156146      3.816800     -0.206529
  H       1.517955      3.827932     -1.100109
  H       1.483555      3.873296      0.659722
  C       3.059504      5.063231     -0.221170
  H       3.704851      5.054358      0.668155
  H       3.731555      5.014774     -1.089183
  C       2.269932      6.383588     -0.262719
  H       1.599159      6.431688      0.606566
  H       1.623685      6.391784     -1.151656
  C       3.169836      7.632129     -0.278561
  H       3.837094      7.596151     -1.149202
  H       3.815010      7.634012      0.609301
  C       2.357638      8.958930     -0.317410
  H       1.714186      8.940535     -1.207190
  H       1.692959      8.979071      0.556555
  C       3.216481     10.187791     -0.334079
  H       3.585621     10.622467      0.590147
  H       3.608930     10.580867     -1.267297
  C       5.483379     -0.140146     -0.017929
  H       6.547945     -0.185133      0.008914
  H      -0.149713     -7.284626      0.016697
  H      -1.048501      0.012217     -0.175834
46
Coordinates from ORCA-job opt_EPRII E -739.770865961164
  C       4.264294     -0.089356     -0.046740
  C       0.039858     -0.014240     -0.150042
  C       0.699300     -1.258295     -0.094411
  C       2.100316     -1.245146     -0.062230
  C       2.828460     -0.033154     -0.083076
  C       2.158391      1.217772     -0.137715
  C       0.753184      1.191443     -0.170923
  H       2.659673     -2.173254     -0.020289
  H       0.200137      2.124008     -0.213515
  C      -0.123624     -2.541720     -0.068077
  H      -0.789648     -2.541822     -0.942106
  H      -0.785513     -2.508338      0.808682
  C       0.663034     -3.861928     -0.043977
  H       1.320185     -3.918002     -0.922043
  H       1.316461     -3.888780      0.838180
  C      -0.254014     -5.097940     -0.023936
  H      -0.914094     -5.044986      0.852231
  H      -0.909149     -5.077334     -0.905137
  C       0.526248     -6.423843      0.003025
  H       1.166612     -6.485555      0.890124
  H       1.170617     -6.519369     -0.878153
  C       2.962635      2.509642     -0.157359
  H       3.613732      2.523374      0.726975
  H       3.647896      2.476755     -1.014992
  C       2.156084      3.816732     -0.207141
  H       1.517762      3.828317     -1.100663
  H       1.483853      3.872867      0.659453
  C       3.059389      5.063153     -0.221531
  H       3.704749      5.054040      0.667821
  H       3.731212      5.014967     -1.089777
  C       2.269907      6.383535     -0.262611
  H       1.599303      6.431391      0.606858
  H       1.623728      6.392014     -1.151635
  C       3.169729      7.632084     -0.278137
  H       3.836918      7.596307     -1.148878
  H       3.814741      7.633801      0.609880
  C       2.357702      8.958960     -0.316752
  H       1.714438      8.940884     -1.206718
  H       1.693041      8.979014      0.557274
  C       3.216719     10.187601     -0.333045
  H       3.585931     10.621822      0.591388
  H       3.609281     10.580765     -1.266199
  C       5.483466     -0.138630     -0.017030
  H       6.548053     -0.182846      0.010274
  H      -0.150361     -7.284567      0.018002
  H      -1.048241      0.011713     -0.177434
