46
Coordinates from ORCA-job opt E -739.678607594055
  C       4.232815     -0.047975      0.003497
  C       0.000000      0.000000      0.000000
  C       0.682084     -1.243874     -0.005687
  C       2.077148     -1.209170     -0.004713
  C       2.800934     -0.000000      0.000000
  C       2.118803      1.243906     -0.000000
  C       0.723750      1.209313      0.001340
  H       2.645912     -2.138803     -0.009197
  H       0.155004      2.138945      0.002312
  C      -0.107444     -2.538837     -0.012423
  H      -0.821031     -2.501792     -0.855670
  H      -0.746653     -2.559544      0.889821
  C       0.696707     -3.839261     -0.090229
  H       1.332591     -3.832191     -0.994750
  H       1.386337     -3.909085      0.771198
  C      -0.198672     -5.084222     -0.114940
  H      -0.836257     -5.091321      0.788551
  H      -0.892176     -5.015676     -0.973577
  C       0.590347     -6.393280     -0.197057
  H       1.266769     -6.509154      0.667377
  H       1.211530     -6.429299     -1.108644
  C       2.908200      2.538981     -0.003849
  H       3.540280      2.561845      0.903332
  H       3.628430      2.498819     -0.841078
  C       2.103979      3.838832     -0.094133
  H       1.465157      3.819926     -0.996194
  H       1.417544      3.919065      0.768660
  C       3.000632      5.081773     -0.141403
  H       3.638075      5.108791      0.762615
  H       3.695735      4.994637     -0.997985
  C       2.221458      6.396821     -0.254724
  H       1.534761      6.492071      0.608031
  H       1.574746      6.360398     -1.152161
  C       3.117600      7.637782     -0.329199
  H       3.808877      7.536408     -1.187976
  H       3.759948      7.680975      0.571322
  C       2.341800      8.953483     -0.460126
  H       1.694554      8.905348     -1.355806
  H       1.656854      9.060265      0.401845
  C       3.247547     10.184443     -0.549115
  H       3.883695     10.279329      0.347996
  H       3.918833     10.124990     -1.423397
  C       5.447855     -0.099468      0.003891
  H       6.519451     -0.142197      0.005481
  H      -0.079670     -7.268143     -0.215340
  H      -1.072444      0.000000      0.000000
46
Coordinates from ORCA-job opt E -739.685279109562
  C       4.252931     -0.052477     -0.017225
  C       0.027666     -0.006599     -0.041066
  C       0.700806     -1.244178     -0.031414
  C       2.097430     -1.215690     -0.025070
  C       2.820352     -0.005826     -0.028236
  C       2.137363      1.236717     -0.038239
  C       0.739411      1.198315     -0.043812
  H       2.666252     -2.145840     -0.017561
  H       0.168973      2.128558     -0.050854
  C      -0.101826     -2.534176     -0.024597
  H      -0.810015     -2.504356     -0.874049
  H      -0.744507     -2.537698      0.876432
  C       0.686799     -3.844884     -0.078730
  H       1.327617     -3.858168     -0.979488
  H       1.370950     -3.907479      0.787286
  C      -0.220293     -5.081727     -0.088703
  H      -0.863338     -5.068234      0.811015
  H      -0.908094     -5.021282     -0.952691
  C       0.556863     -6.399275     -0.144018
  H       1.226647     -6.506611      0.726666
  H       1.183500     -6.456449     -1.050808
  C       2.926189      2.533008     -0.038833
  H       3.555485      2.555761      0.870444
  H       3.649390      2.496463     -0.873861
  C       2.120295      3.831903     -0.126561
  H       1.484975      3.817520     -1.031197
  H       1.430250      3.905479      0.733918
  C       3.013927      5.077559     -0.160363
  H       3.648374      5.097760      0.745871
  H       3.711914      5.002245     -1.015652
  C       2.228498      6.389602     -0.260643
  H       1.538490      6.470474      0.600703
  H       1.585607      6.362867     -1.160981
  C       3.121589      7.634462     -0.313413
  H       3.815486      7.551053     -1.171326
  H       3.759940      7.667115      0.589739
  C       2.328892      8.947926     -0.425341
  H       1.687014      8.909200     -1.325793
  H       1.641615      9.033117      0.437612
  C       3.230384     10.164139     -0.487111
  H       3.816052     10.367016      0.426802
  H       3.860897     10.241697     -1.390383
  C       5.468009     -0.102617     -0.010270
  H       6.539498     -0.144386     -0.002847
  H      -0.121060     -7.268232     -0.151948
  H      -1.064804      0.000084     -0.045506
46
Coordinates from ORCA-job opt E -739.688295764440
  C       4.263962     -0.063230     -0.034376
  C       0.047123     -0.010648     -0.078958
  C       0.710086     -1.246536     -0.054052
  C       2.107583     -1.225591     -0.040849
  C       2.830812     -0.014772     -0.050303
  C       2.151295      1.229238     -0.073708
  C       0.750551      1.192546     -0.087765
  H       2.675370     -2.156417     -0.022809
  H       0.184168      2.125146     -0.106974
  C      -0.103431     -2.530863     -0.037570
  H      -0.802122     -2.509087     -0.895167
  H      -0.751339     -2.518668      0.859581
  C       0.675793     -3.847969     -0.065954
  H       1.324361     -3.878706     -0.960933
  H       1.352666     -3.900318      0.806699
  C      -0.237523     -5.079853     -0.064258
  H      -0.888953     -5.048540      0.829050
  H      -0.916903     -5.030792     -0.935663
  C       0.533637     -6.401866     -0.089803
  H       1.194386     -6.497194      0.789138
  H       1.168743     -6.477637     -0.989313
  C       2.943302      2.523520     -0.076547
  H       3.572787      2.545880      0.832606
  H       3.666385      2.486675     -0.911699
  C       2.138906      3.823633     -0.161341
  H       1.505379      3.814683     -1.067302
  H       1.446884      3.892741      0.698013
  C       3.031535      5.070638     -0.184175
  H       3.666135      5.082137      0.722094
  H       3.729375      5.006147     -1.040335
  C       2.242969      6.382371     -0.268044
  H       1.551586      6.448600      0.593433
  H       1.601655      6.367483     -1.169703
  C       3.132976      7.631916     -0.299579
  H       3.825952      7.569150     -1.158698
  H       3.769802      7.652956      0.603876
  C       2.327364      8.948858     -0.387511
  H       1.689313      8.918258     -1.289990
  H       1.641160      9.006706      0.477535
  C       3.208077     10.156435     -0.423400
  H       3.724359     10.450422      0.499407
  H       3.774268     10.359720     -1.341366
  C       5.478878     -0.114546     -0.023035
  H       6.550281     -0.157790     -0.011667
  H      -0.148349     -7.267665     -0.089456
  H      -1.048852      0.006686     -0.091234
46
Coordinates from ORCA-job opt E -739.689307215527
  C       4.263602     -0.071626     -0.040398
  C       0.050432     -0.012155     -0.103481
  C       0.709076     -1.249844     -0.068109
  C       2.106748     -1.232124     -0.049071
  C       2.830273     -0.020869     -0.063112
  C       2.154863      1.224884     -0.096401
  C       0.752908      1.191933     -0.116586
  H       2.674318     -2.162626     -0.023139
  H       0.191930      2.127089     -0.144436
  C      -0.108376     -2.531609     -0.047773
  H      -0.798182     -2.516412     -0.912397
  H      -0.762386     -2.510436      0.844484
  C       0.669574     -3.850123     -0.057432
  H       1.325048     -3.890190     -0.947050
  H       1.340091     -3.893654      0.820689
  C      -0.244106     -5.081332     -0.050301
  H      -0.903272     -5.040470      0.836936
  H      -0.915948     -5.041810     -0.928008
  C       0.527006     -6.403696     -0.054600
  H       1.180147     -6.489070      0.831021
  H       1.169782     -6.489631     -0.947719
  C       2.950975      2.516232     -0.104178
  H       3.585929      2.536780      0.801168
  H       3.669063      2.477954     -0.943587
  C       2.149615      3.818644     -0.182763
  H       1.513846      3.815026     -1.087210
  H       1.459772      3.885952      0.678586
  C       3.044202      5.064304     -0.202313
  H       3.684510      5.067950      0.700038
  H       3.736493      5.005698     -1.063342
  C       2.256731      6.377717     -0.270370
  H       1.569161      6.435816      0.594818
  H       1.611671      6.372464     -1.169501
  C       3.146635      7.627424     -0.292936
  H       3.832757      7.578525     -1.158156
  H       3.788577      7.640316      0.606830
  C       2.337165      8.949072     -0.358982
  H       1.694672      8.919539     -1.258653
  H       1.656602      8.983925      0.512036
  C       3.200226     10.162977     -0.384369
  H       3.661055     10.519565      0.542786
  H       3.700955     10.452752     -1.314133
  C       5.478374     -0.124571     -0.023070
  H       6.549618     -0.169743     -0.006360
  H      -0.155099     -7.269387     -0.050375
  H      -1.044643      0.012697     -0.121185
46
Coordinates from ORCA-job opt E -739.689652666385
  C       4.259870     -0.075690     -0.047214
  C       0.047099     -0.013681     -0.125804
  C       0.705372     -1.252456     -0.081161
  C       2.102880     -1.234801     -0.057370
  C       2.826517     -0.023802     -0.075199
  C       2.152992      1.222315     -0.118319
  C       0.751030      1.191012     -0.143542
  H       2.670936     -2.164631     -0.024028
  H       0.192937      2.127436     -0.178044
  C      -0.112252     -2.533754     -0.056732
  H      -0.794493     -2.526045     -0.927301
  H      -0.773093     -2.505265      0.830124
  C       0.667324     -3.851618     -0.048980
  H       1.328434     -3.899240     -0.933997
  H       1.332451     -3.885928      0.833599
  C      -0.244974     -5.083670     -0.036154
  H      -0.910512     -5.035140      0.845917
  H      -0.910642     -5.053659     -0.918910
  C       0.527780     -6.405080     -0.021994
  H       1.175009     -6.480627      0.868851
  H       1.176696     -6.499116     -0.909835
  C       2.951222      2.512119     -0.130745
  H       3.592996      2.530626      0.769703
  H       3.663165      2.473360     -0.975457
  C       2.152261      3.816389     -0.202246
  H       1.515111      3.818551     -1.105746
  H       1.464022      3.881395      0.660602
  C       3.049901      5.059770     -0.217882
  H       3.694943      5.055432      0.681064
  H       3.737548      5.005304     -1.082885
  C       2.266179      6.375919     -0.272777
  H       1.580517      6.428359      0.594394
  H       1.619326      6.380510     -1.170746
  C       3.159208      7.622173     -0.286045
  H       3.841003      7.583130     -1.155281
  H       3.804546      7.626209      0.611460
  C       2.351859      8.947575     -0.334545
  H       1.707623      8.922120     -1.233403
  H       1.673461      8.965190      0.538968
  C       3.205111     10.169229     -0.347707
  H       3.616990     10.565926      0.584956
  H       3.653952     10.520205     -1.281635
  C       5.474563     -0.129280     -0.025180
  H       6.545692     -0.175539     -0.004273
  H      -0.153270     -7.271567     -0.013657
  H      -1.046898      0.014186     -0.146946
46
Coordinates from ORCA-job opt E -739.689728937198
  C       4.259796     -0.078134     -0.045306
  C       0.045881     -0.013918     -0.129947
  C       0.704517     -1.253042     -0.082813
  C       2.101862     -1.235303     -0.056638
  C       2.826536     -0.025200     -0.075217
  C       2.153426      1.220983     -0.121734
  C       0.751935      1.190097     -0.148769
  H       2.669644     -2.165254     -0.021232
  H       0.194370      2.126817     -0.186062
  C      -0.112979     -2.534377     -0.060050
  H      -0.791011     -2.527970     -0.933951
  H      -0.778674     -2.504308      0.823102
  C       0.666663     -3.852178     -0.046621
  H       1.330655     -3.901607     -0.929342
  H       1.328767     -3.884840      0.838243
  C      -0.245991     -5.084043     -0.034725
  H      -0.914537     -5.033948      0.844969
  H      -0.908645     -5.055281     -0.919783
  C       0.526351     -6.405655     -0.015885
  H       1.170938     -6.479789      0.876992
  H       1.177862     -6.501400     -0.901641
  C       2.951994      2.510512     -0.138579
  H       3.600988      2.527802      0.756596
  H       3.657229      2.472058     -0.989030
  C       2.153413      3.815336     -0.203639
  H       1.512998      3.819912     -1.104818
  H       1.468413      3.878936      0.661876
  C       3.052261      5.057802     -0.221031
  H       3.701893      5.051210      0.674579
  H       3.735472      5.003829     -1.089579
  C       2.270372      6.375259     -0.270621
  H       1.587533      6.427218      0.598853
  H       1.620422      6.382037     -1.166394
  C       3.164999      7.619517     -0.285413
  H       3.843052      7.581754     -1.157715
  H       3.814372      7.622086      0.609264
  C       2.358935      8.945236     -0.328634
  H       1.711954      8.920247     -1.225641
  H       1.683198      8.959810      0.547107
  C       3.208474     10.170665     -0.342270
  H       3.594095     10.591783      0.590551
  H       3.625793     10.549072     -1.279759
  C       5.474429     -0.132386     -0.021463
  H       6.545479     -0.179642      0.001055
  H      -0.154960     -7.271941     -0.008011
  H      -1.047775      0.014091     -0.152978
46
Coordinates from ORCA-job opt E -739.689744630561
  C       4.260431     -0.079165     -0.043801
  C       0.045508     -0.014043     -0.131445
  C       0.704559     -1.253125     -0.083820
  C       2.101791     -1.235307     -0.056544
  C       2.827336     -0.025838     -0.074961
  C       2.153988      1.220320     -0.122478
  C       0.752870      1.189260     -0.150040
  H       2.669046     -2.165608     -0.020185
  H       0.194673      2.125707     -0.187372
  C      -0.112625     -2.534684     -0.062063
  H      -0.788726     -2.528671     -0.937532
  H      -0.781077     -2.504055      0.819029
  C       0.666729     -3.852526     -0.046262
  H       1.332023     -3.902714     -0.927953
  H       1.327368     -3.884933      0.839686
  C      -0.246451     -5.084097     -0.035240
  H      -0.916044     -5.033568      0.843626
  H      -0.908001     -5.055085     -0.921120
  C       0.525245     -6.406058     -0.015421
  H       1.169005     -6.480383      0.878038
  H       1.177507     -6.502236     -0.900578
  C       2.952314      2.510080     -0.140601
  H       3.605995      2.525793      0.751118
  H       3.653119      2.472903     -0.994851
  C       2.153571      3.815066     -0.200338
  H       1.510577      3.821302     -1.099666
  H       1.471065      3.877051      0.667237
  C       3.052690      5.057333     -0.219015
  H       3.704709      5.050233      0.674839
  H       3.733597      5.003292     -1.089393
  C       2.271381      6.375255     -0.266822
  H       1.590542      6.427865      0.604186
  H       1.619115      6.381657     -1.160936
  C       3.166483      7.619040     -0.284961
  H       3.842679      7.579595     -1.158667
  H       3.818419      7.622222      0.607869
  C       2.361249      8.944230     -0.328182
  H       1.712089      8.919425     -1.223647
  H       1.687332      8.961780      0.548938
  C       3.211223     10.170165     -0.345793
  H       3.587591     10.603170      0.585351
  H       3.615071     10.557220     -1.285636
  C       5.475028     -0.133594     -0.018769
  H       6.546038     -0.181298      0.004787
  H      -0.156488     -7.272016     -0.008016
  H      -1.048149      0.012895     -0.154701
46
Coordinates from ORCA-job opt E -739.689748677175
  C       4.260790     -0.079298     -0.043161
  C       0.045356     -0.014073     -0.132207
  C       0.704669     -1.253060     -0.084470
  C       2.101849     -1.235192     -0.056583
  C       2.827823     -0.025999     -0.074688
  C       2.154171      1.220112     -0.122574
  C       0.753252      1.188847     -0.150504
  H       2.668661     -2.165788     -0.019924
  H       0.194300      2.124915     -0.187821
  C      -0.112189     -2.534851     -0.063406
  H      -0.787169     -2.529096     -0.939802
  H      -0.782317     -2.503996      0.816439
  C       0.666997     -3.852675     -0.046232
  H       1.333175     -3.903261     -0.927235
  H       1.326666     -3.884991      0.840440
  C      -0.246425     -5.084126     -0.035865
  H      -0.916528     -5.033489      0.842604
  H      -0.907415     -5.054830     -0.922156
  C       0.524953     -6.406246     -0.015772
  H       1.168325     -6.480827      0.877947
  H       1.177567     -6.502509     -0.900661
  C       2.952260      2.510067     -0.141082
  H       3.608700      2.524560      0.748576
  H       3.650401      2.473984     -0.997617
  C       2.153280      3.815062     -0.197197
  H       1.508517      3.822424     -1.095250
  H       1.472458      3.875713      0.671783
  C       3.052329      5.057363     -0.216468
  H       3.705310      5.050251      0.676677
  H       3.732306      5.003278     -1.087592
  C       2.271012      6.375308     -0.263731
  H       1.591467      6.428517      0.608246
  H       1.617257      6.380953     -1.156774
  C       3.166124      7.619217     -0.284456
  H       3.841548      7.577872     -1.158692
  H       3.819420      7.623060      0.607381
  C       2.361615      8.944008     -0.328738
  H       1.710918      8.919617     -1.223086
  H       1.688885      8.965307      0.549193
  C       3.213359     10.169118     -0.349972
  H       3.588853     10.606722      0.579417
  H       3.613447     10.557118     -1.291078
  C       5.475385     -0.133562     -0.017714
  H       6.546385     -0.181337      0.006185
  H      -0.156992     -7.272041     -0.008719
  H      -1.048362      0.011709     -0.155764
46
Coordinates from ORCA-job opt E -739.689749685996
  C       4.260893     -0.079127     -0.043591
  C       0.045387     -0.014079     -0.133807
  C       0.704757     -1.253015     -0.085632
  C       2.101931     -1.235147     -0.057350
  C       2.827985     -0.025998     -0.075534
  C       2.154195      1.220084     -0.123807
  C       0.753332      1.188758     -0.152097
  H       2.668495     -2.165884     -0.020281
  H       0.193946      2.124579     -0.189644
  C      -0.111949     -2.534903     -0.064556
  H      -0.786166     -2.529706     -0.941570
  H      -0.783040     -2.503561      0.814548
  C       0.667170     -3.852699     -0.045898
  H       1.334018     -3.903925     -0.926359
  H       1.326150     -3.884500      0.841308
  C      -0.246311     -5.084124     -0.035413
  H      -0.916771     -5.033046      0.842757
  H      -0.906915     -5.055142     -0.922002
  C       0.524988     -6.406261     -0.014444
  H       1.168051     -6.480501      0.879526
  H       1.177898     -6.502965     -0.899066
  C       2.952208      2.510100     -0.142411
  H       3.610046      2.523794      0.746200
  H       3.648976      2.474747     -1.000122
  C       2.153064      3.815083     -0.196314
  H       1.507351      3.823318     -1.093673
  H       1.473136      3.874674      0.673437
  C       3.051950      5.057494     -0.215340
  H       3.705089      5.050199      0.677686
  H       3.731774      5.003740     -1.086612
  C       2.270402      6.375297     -0.262074
  H       1.591515      6.428490      0.610416
  H       1.615926      6.380765     -1.154594
  C       3.165360      7.619459     -0.283638
  H       3.840573      7.577327     -1.158008
  H       3.819142      7.623303      0.607847
  C       2.361317      8.944123     -0.328166
  H       1.709747      8.920359     -1.221882
  H       1.689242      8.967418      0.550198
  C       3.214355     10.168422     -0.351043
  H       3.591753     10.606491      0.577387
  H       3.614830     10.555345     -1.292458
  C       5.475492     -0.133120     -0.017706
  H       6.546487     -0.180814      0.006549
  H      -0.157012     -7.272012     -0.007233
  H      -1.048373      0.011018     -0.157638
