%chk=g09BDE
%NProcShared=8
#P bmk/6-31+g ! ASE formatted method and basis
opt(modredun,calcfc) freq

Gaussian input prepared by ASE

0 2
C                 1.3143749999        0.0027499345       -0.0000776211
C                 0.7189056359        1.2585254640       -0.0037242736
C                -0.6965424479        1.2150194699       -0.0037924741
C                -1.3911343358       -0.0046820223       -0.0004107682
C                -0.7280832704       -1.2482462866        0.0032412225
C                 0.6889802790       -1.2312658125        0.0033749711
H                -1.2616522652        2.1435815878       -0.0064949654
H                 1.2631680616       -2.1526829386        0.0060838919
C                 1.5430753357        2.5409280621       -0.0073778240
H                 2.2054547353        2.5204877391       -0.8829999248
H                 2.2074003682        2.5241935440        0.8668331420
C                 0.7460596478        3.8550042608       -0.0092984825
H                 0.0895504121        3.8901627202       -0.8890469337
H                 0.0915035629        3.8938589764        0.8717541871
C                 1.6551609405        5.0970330199       -0.0129808884
H                 2.3141876925        5.0656251323        0.8648958613
H                 2.3121281625        5.0619054778       -0.8922591754
C                 0.8672983342        6.4185800512       -0.0148860744
H                 0.2257200583        6.4958420760        0.8701917010
H                 0.2232528284        6.4917868269       -0.8985149895
C                -1.5414306345       -2.5389368507        0.0069273820
H                -2.2043925158       -2.5250755239        0.8832705559
H                -2.2054569219       -2.5293838040       -0.8686606368
C                -0.7432962112       -3.8521956865        0.0096843700
H                -0.0884477429       -3.8900590900       -0.8711282313
H                -0.0871882025       -3.8856448677        0.8897336400
C                -1.6492328069       -5.0966007941        0.0135024702
H                -2.3065947604       -5.0629800683        0.8926323411
H                -2.3079862647       -5.0673685102       -0.8647424306
C                -0.8578902338       -6.4160444279        0.0162044912
H                -0.2139414523       -6.4871294085        0.9000312520
H                -0.2157705671       -6.4918797532       -0.8685581156
H                 1.5388333023        7.2834144301       -0.0178017079
H                -1.5271255918       -7.2826378239        0.0192225912
H                -2.4794879123        0.0117979859       -0.0006228232


