46
Coordinates from ORCA-job opt_cc-pVDZ E -739.695999038888
  C       4.303993     -0.099044     -0.019986
  C       0.095379      0.041847     -0.250332
  C       0.727206     -1.205028     -0.115214
  C       2.122929     -1.212411     -0.043556
  C       2.874308     -0.020154     -0.101380
  C       2.228091      1.234157     -0.236580
  C       0.828539      1.228178     -0.309060
  H       2.668303     -2.150773      0.059972
  H       0.289670      2.170928     -0.414345
  C      -0.115666     -2.468406     -0.049589
  H      -0.784199     -2.484013     -0.930720
  H      -0.791676     -2.389160      0.822893
  C       0.636247     -3.799827      0.026362
  H       1.309912     -3.896981     -0.845049
  H       1.286422     -3.811728      0.920477
  C      -0.301843     -5.011708      0.074983
  H      -0.977280     -4.914794      0.945461
  H      -0.955453     -5.002515     -0.817199
  C       0.442407     -6.347212      0.151027
  H       1.079450     -6.399990      1.050835
  H       1.097598     -6.491215     -0.725436
  C       3.053158      2.505621     -0.293993
  H       3.669351      2.559915      0.622764
  H       3.788282      2.406081     -1.113865
  C       2.286495      3.819607     -0.461501
  H       1.683582      3.789097     -1.387366
  H       1.571864      3.952366      0.370090
  C       3.218416      5.039823     -0.514112
  H       3.844016      5.071239      0.400108
  H       3.946453      4.894522     -1.346232
  C       2.505214      6.343014     -0.678289
  H       1.561879      6.348293     -1.239679
  C       3.174852      7.653563     -0.417869
  H       3.874748      7.897348     -1.251684
  H       3.824892      7.567710      0.475950
  C       2.204128      8.830751     -0.238803
  H       1.570192      8.913846     -1.141092
  H       1.516816      8.605008      0.596374
  C       2.912091     10.163176      0.016523
  H       3.531850     10.118821      0.928896
  H       3.579244     10.430027     -0.821537
  C       5.515728     -0.175457      0.048577
  H       6.584104     -0.243307      0.110603
  H      -0.257066     -7.198161      0.187741
  H       2.190725     10.986727      0.143833
  H      -0.996407      0.085398     -0.311066
46
Coordinates from ORCA-job opt_cc-pVDZ E -739.696000295040
  C       4.302806     -0.098134     -0.018100
  C       0.094380      0.040825     -0.250086
  C       0.726644     -1.205804     -0.114693
  C       2.122363     -1.212548     -0.042464
  C       2.873074     -0.019871     -0.100081
  C       2.226449      1.234162     -0.235562
  C       0.826888      1.227637     -0.308566
  H       2.668260     -2.150562      0.061344
  H       0.287878      2.170265     -0.413989
  C      -0.115757     -2.469504     -0.049398
  H      -0.784433     -2.484996     -0.930401
  H      -0.791472     -2.391005      0.823364
  C       0.636859     -3.800618      0.025685
  H       1.310681     -3.896765     -0.845718
  H       1.286960     -3.812799      0.919851
  C      -0.300551     -5.013047      0.073307
  H      -0.976195     -4.917196      0.943743
  H      -0.954030     -5.003610     -0.818966
  C       0.444482     -6.348174      0.148493
  H       1.081377     -6.401246      1.048389
  H       1.099929     -6.491118     -0.727952
  C       3.051057      2.505911     -0.292904
  H       3.668167      2.559803      0.623235
  H       3.785388      2.407214     -1.113607
  C       2.283852      3.819752     -0.458943
  H       1.680300      3.789813     -1.384400
  H       1.569824      3.951823      0.373297
  C       3.215454      5.040204     -0.511554
  H       3.842152      5.071039      0.401948
  H       3.943060      4.895111     -1.344183
  C       2.502381      6.343514     -0.674882
  H       1.558197      6.349126     -1.234730
  C       3.174480      7.653419     -0.417957
  H       3.872970      7.894934     -1.253714
  H       3.826781      7.568284      0.474268
  C       2.206189      8.832605     -0.238778
  H       1.570048      8.914844     -1.139584
  H       1.520708      8.609629      0.598668
  C       2.916990     10.164338      0.011968
  H       3.538968     10.120938      0.922877
  H       3.582459     10.428329     -0.828333
  C       5.514547     -0.173963      0.051006
  H       6.582925     -0.241351      0.113496
  H      -0.254488     -7.199571      0.184421
  H       2.197279     10.989323      0.139374
  H      -0.997339      0.084218     -0.311252
