46
Coordinates from ORCA-job opt E -739.684500994945
  C       4.232815     -0.047975      0.003497
  C       0.000000      0.000000      0.000000
  C       0.682084     -1.243874     -0.005687
  C       2.077148     -1.209170     -0.004713
  C       2.800934     -0.000000      0.000000
  C       2.118803      1.243906     -0.000000
  C       0.723750      1.209313      0.001340
  H       2.645912     -2.138803     -0.009197
  H       0.155004      2.138945      0.002312
  C      -0.107444     -2.538837     -0.012423
  H      -0.821031     -2.501792     -0.855670
  H      -0.746653     -2.559544      0.889821
  C       0.696707     -3.839261     -0.090229
  H       1.332591     -3.832191     -0.994750
  H       1.386337     -3.909085      0.771198
  C      -0.198672     -5.084222     -0.114940
  H      -0.836257     -5.091321      0.788551
  H      -0.892176     -5.015676     -0.973577
  C       0.590347     -6.393280     -0.197057
  H       1.266769     -6.509154      0.667377
  H       1.211530     -6.429299     -1.108644
  C       2.908200      2.538981     -0.003849
  H       3.540280      2.561845      0.903332
  H       3.628430      2.498819     -0.841078
  C       2.103979      3.838832     -0.094133
  H       1.465157      3.819926     -0.996194
  H       1.417544      3.919065      0.768660
  C       3.000632      5.081773     -0.141403
  H       3.638075      5.108791      0.762615
  H       3.695735      4.994637     -0.997985
  C       2.221458      6.396821     -0.254724
  H       1.574746      6.360398     -1.152161
  C       3.117600      7.637782     -0.329199
  H       3.808877      7.536408     -1.187976
  H       3.759948      7.680975      0.571322
  C       2.341800      8.953483     -0.460126
  H       1.694554      8.905348     -1.355806
  H       1.656854      9.060265      0.401845
  C       3.247547     10.184443     -0.549115
  H       3.883695     10.279329      0.347996
  H       3.918833     10.124990     -1.423397
  C       5.447855     -0.099468      0.003891
  H       6.519451     -0.142197      0.005481
  H      -0.079670     -7.268143     -0.215340
  H       2.661311     11.113394     -0.641932
  H      -1.072444      0.000000      0.000000
46
Coordinates from ORCA-job opt E -739.690789288276
  C       4.267458     -0.072184     -0.008070
  C       0.042668      0.005512     -0.057099
  C       0.706591     -1.237162     -0.032592
  C       2.103273     -1.218973     -0.017902
  C       2.835370     -0.014674     -0.027605
  C       2.161911      1.232875     -0.054605
  C       0.763843      1.205062     -0.067857
  H       2.664950     -2.153286      0.001023
  H       0.200621      2.139427     -0.087737
  C      -0.105385     -2.521178     -0.021053
  H      -0.808859     -2.491976     -0.874386
  H      -0.753065     -2.513676      0.876321
  C       0.673997     -3.837906     -0.062106
  H       1.319568     -3.861831     -0.959257
  H       1.352908     -3.899882      0.808078
  C      -0.242135     -5.068095     -0.069142
  H      -0.889657     -5.044324      0.827135
  H      -0.925046     -5.007867     -0.937014
  C       0.525499     -6.391669     -0.112504
  H       1.190095     -6.498648      0.762190
  H       1.156238     -6.459002     -1.015751
  C       2.960251      2.523168     -0.066746
  H       3.583165      2.553711      0.846718
  H       3.689440      2.469232     -0.896029
  C       2.164895      3.826928     -0.178808
  H       1.535352      3.803534     -1.087322
  H       1.470875      3.920955      0.675089
  C       3.069409      5.066177     -0.227197
  H       3.701741      5.097416      0.681207
  H       3.773395      4.971850     -1.080384
  C       2.313210      6.375559     -0.368928
  H       1.602330      6.353148     -1.217362
  C       3.131258      7.654706     -0.347131
  H       3.833708      7.637128     -1.207230
  H       3.767678      7.674006      0.559362
  C       2.291107      8.937380     -0.407290
  H       1.654606      8.911792     -1.311611
  H       1.595433      8.955534      0.451017
  C       3.135020     10.214851     -0.411488
  H       3.757677     10.286267      0.497215
  H       3.816321     10.242685     -1.279958
  C       5.482068     -0.131634      0.006205
  H       6.553132     -0.181613      0.020096
  H      -0.158804     -7.255636     -0.118610
  H       2.503755     11.117405     -0.454669
  H      -1.048923      0.020088     -0.068279
46
Coordinates from ORCA-job opt E -739.693928848961
  C       4.284508     -0.080669     -0.019983
  C       0.068730      0.016769     -0.109750
  C       0.718394     -1.225829     -0.057663
  C       2.115730     -1.219356     -0.030001
  C       2.852261     -0.016866     -0.052542
  C       2.186650      1.233722     -0.105382
  C       0.785887      1.212111     -0.132567
  H       2.673074     -2.155786      0.009655
  H       0.229962      2.150274     -0.173131
  C      -0.108110     -2.501534     -0.030273
  H      -0.800358     -2.483780     -0.893143
  H      -0.762877     -2.471173      0.861456
  C       0.658339     -3.826450     -0.036242
  H       1.313518     -3.874323     -0.925646
  H       1.327726     -3.874998      0.842365
  C      -0.266967     -5.049317     -0.027292
  H      -0.924257     -5.001814      0.860986
  H      -0.939767     -5.003279     -0.903953
  C       0.491361     -6.378999     -0.033024
  H       1.145206     -6.471137      0.851410
  H       1.131744     -6.470825     -0.927290
  C       2.993163      2.518525     -0.126715
  H       3.608586      2.556623      0.791605
  H       3.729187      2.451755     -0.948881
  C       2.206038      3.824983     -0.258467
  H       1.585572      3.798924     -1.172924
  H       1.505263      3.933563      0.587855
  C       3.119408      5.057757     -0.307135
  H       3.748636      5.091327      0.603096
  H       3.832759      4.950776     -1.156274
  C       2.387081      6.356608     -0.470080
  H       1.615117      6.346829     -1.257936
  C       3.142976      7.647703     -0.362366
  H       3.853694      7.706819     -1.218953
  H       3.776923      7.638572      0.545720
  C       2.256165      8.900298     -0.358875
  H       1.628244      8.901774     -1.269286
  H       1.554897      8.842071      0.492657
  C       3.054054     10.204574     -0.284260
  H       3.666785     10.247401      0.632959
  H       3.740343     10.305040     -1.143173
  C       5.498589     -0.145209      0.005631
  H       6.569245     -0.200105      0.029616
  H      -0.199070     -7.238066     -0.027915
  H       2.390783     11.084795     -0.283130
  H      -1.026248      0.045103     -0.132824
46
Coordinates from ORCA-job opt E -739.695280488120
  C       4.287256     -0.085879     -0.024707
  C       0.076416      0.024223     -0.146745
  C       0.718982     -1.220389     -0.073436
  C       2.116323     -1.219344     -0.035317
  C       2.855085     -0.017767     -0.067653
  C       2.196026      1.234941     -0.141464
  C       0.794125      1.219068     -0.179864
  H       2.671792     -2.155811      0.020138
  H       0.245646      2.160302     -0.237501
  C      -0.113743     -2.491857     -0.035694
  H      -0.796975     -2.484307     -0.905592
  H      -0.774182     -2.447246      0.850972
  C       0.649490     -3.818878     -0.016463
  H       1.311475     -3.880862     -0.900005
  H       1.312519     -3.854974      0.867644
  C      -0.277261     -5.040065      0.003730
  H      -0.941660     -4.978707      0.885870
  H      -0.942977     -5.007102     -0.878904
  C       0.479894     -6.370342      0.024740
  H       1.126753     -6.448839      0.915604
  H       1.127110     -6.476826     -0.862951
  C       3.009412      2.514702     -0.172744
  H       3.620388      2.559798      0.748216
  H       3.749406      2.435899     -0.990094
  C       2.230557      3.823937     -0.322413
  H       1.618171      3.794845     -1.242048
  H       1.523765      3.946573      0.517170
  C       3.152403      5.050886     -0.374131
  H       3.779664      5.086162      0.537579
  H       3.875182      4.922363     -1.215139
  C       2.437420      6.349570     -0.554843
  H       1.606898      6.349019     -1.276887
  C       3.155350      7.647373     -0.379939
  H       3.872870      7.772722     -1.226586
  H       3.789083      7.611633      0.527769
  C       2.239686      8.878480     -0.323942
  H       1.617109      8.906821     -1.237394
  H       1.536022      8.762902      0.519910
  C       3.007195     10.195274     -0.184894
  H       3.614594     10.209824      0.736712
  H       3.694718     10.350484     -1.034486
  C       5.500915     -0.153808      0.009994
  H       6.571165     -0.212210      0.042073
  H      -0.211301     -7.228698      0.038101
  H       2.323809     11.059208     -0.146751
  H      -1.017631      0.062080     -0.179700
46
Coordinates from ORCA-job opt E -739.695805792444
  C       4.289819     -0.090576     -0.030698
  C       0.080340      0.030530     -0.179897
  C       0.719166     -1.215810     -0.087663
  C       2.116247     -1.217710     -0.041652
  C       2.858014     -0.018382     -0.083868
  C       2.203971      1.235430     -0.175978
  C       0.802248      1.223982     -0.222941
  H       2.669890     -2.154129      0.028438
  H       0.259263      2.167261     -0.294395
  C      -0.117120     -2.484391     -0.038835
  H      -0.794921     -2.486098     -0.912846
  H      -0.781774     -2.427414      0.843835
  C       0.644024     -3.812481      0.000868
  H       1.309403     -3.886755     -0.879136
  H       1.303677     -3.837920      0.887819
  C      -0.284530     -5.031895      0.033275
  H      -0.952561     -4.958363      0.911732
  H      -0.946555     -5.009787     -0.852454
  C       0.470821     -6.362781      0.074984
  H       1.114437     -6.429904      0.969124
  H       1.121027     -6.482114     -0.808874
  C       3.022118      2.511664     -0.215360
  H       3.629517      2.562806      0.707635
  H       3.765289      2.423295     -1.028870
  C       2.249566      3.822530     -0.380430
  H       1.646272      3.790780     -1.305977
  H       1.535281      3.954207      0.451634
  C       3.177715      5.045466     -0.431679
  H       3.798885      5.082401      0.484424
  H       3.911004      4.898433     -1.260920
  C       2.471307      6.347183     -0.623359
  H       1.598306      6.352674     -1.290364
  C       3.165006      7.649451     -0.393829
  H       3.891237      7.830186     -1.223369
  H       3.793095      7.589101      0.516786
  C       2.227735      8.862271     -0.297412
  H       1.613778      8.916272     -1.215520
  H       1.518187      8.700652      0.534119
  C       2.971306     10.184577     -0.098050
  H       3.570523     10.171885      0.828930
  H       3.663211     10.385572     -0.934400
  C       5.503026     -0.161791      0.012961
  H       6.572816     -0.223627      0.052994
  H      -0.221527     -7.220014      0.097598
  H       2.272980     11.034677     -0.030959
  H      -1.012575      0.073835     -0.219484
46
Coordinates from ORCA-job opt E -739.695960614588
  C       4.296479     -0.095469     -0.036172
  C       0.086885      0.037596     -0.209070
  C       0.722308     -1.209741     -0.099822
  C       2.119017     -1.214754     -0.046833
  C       2.865260     -0.018826     -0.097816
  C       2.215448      1.235778     -0.206671
  C       0.814422      1.227909     -0.261125
  H       2.669643     -2.151940      0.036182
  H       0.275039      2.172218     -0.345817
  C      -0.117675     -2.475373     -0.040888
  H      -0.792019     -2.484205     -0.917529
  H      -0.786053     -2.406977      0.838165
  C       0.639413     -3.805203      0.015915
  H       1.306774     -3.891238     -0.861481
  H       1.296638     -3.822965      0.904792
  C      -0.293345     -5.021129      0.059448
  H      -0.963367     -4.935729      0.935304
  H      -0.953061     -5.006579     -0.828152
  C       0.457327     -6.354058      0.117810
  H       1.099177     -6.413093      1.013794
  H       1.108649     -6.485794     -0.763457
  C       3.037254      2.509445     -0.253899
  H       3.642698      2.565592      0.670074
  H       3.782088      2.413162     -1.065078
  C       2.269146      3.821312     -0.430499
  H       1.673213      3.787330     -1.360771
  H       1.548462      3.957716      0.395304
  C       3.201065      5.042009     -0.479763
  H       3.815602      5.080410      0.441127
  H       3.941811      4.885469     -1.299802
  C       2.496481      6.344910     -0.673821
  H       1.594831      6.352709     -1.299947
  C       3.171307      7.650003     -0.404185
  H       3.902698      7.873361     -1.217820
  H       3.793085      7.569795      0.509630
  C       2.214188      8.844709     -0.275854
  H       1.608217      8.920048     -1.197794
  H       1.499294      8.644713      0.542726
  C       2.935255     10.170459     -0.024490
  H       3.526758     10.134852      0.906843
  H       3.631040     10.410869     -0.847136
  C       5.509176     -0.170367      0.014959
  H       6.578474     -0.235947      0.061616
  H      -0.238027     -7.208583      0.149118
  H       2.223318     11.007022      0.065718
  H      -1.005448      0.083753     -0.254896
46
Coordinates from ORCA-job opt E -739.695985232593
  C       4.301923     -0.098749     -0.037519
  C       0.092171      0.041916     -0.228323
  C       0.725279     -1.205751     -0.107951
  C       2.121664     -1.212942     -0.049568
  C       2.871284     -0.019467     -0.105688
  C       2.223946      1.235574     -0.225155
  C       0.823491      1.229691     -0.285206
  H       2.669640     -2.150967      0.041977
  H       0.285513      2.174083     -0.378627
  C      -0.117094     -2.469501     -0.043229
  H      -0.789400     -2.482353     -0.921441
  H      -0.788190     -2.394023      0.833236
  C       0.636686     -3.800592      0.024076
  H       1.305516     -3.894091     -0.851432
  H       1.292020     -3.814273      0.914399
  C      -0.299474     -5.013759      0.073883
  H      -0.970781     -4.920692      0.947968
  H      -0.957571     -5.003109     -0.814974
  C       0.447274     -6.348385      0.142314
  H       1.087938     -6.403126      1.039423
  H       1.099227     -6.488101     -0.737255
  C       3.047909      2.507788     -0.277165
  H       3.654038      2.565633      0.646236
  H       3.792049      2.407582     -1.088569
  C       2.281889      3.820459     -0.457011
  H       1.688015      3.786094     -1.388604
  H       1.559304      3.957700      0.366950
  C       3.215051      5.040412     -0.505305
  H       3.827825      5.078356      0.417053
  H       3.956719      4.883521     -1.323737
  C       2.508637      6.343435     -0.694340
  H       1.591322      6.351099     -1.297010
  C       3.174048      7.650573     -0.409427
  H       3.902988      7.894143     -1.218660
  H       3.796123      7.561345      0.503641
  C       2.205292      8.833798     -0.261349
  H       1.599601      8.919278     -1.182616
  H       1.491373      8.613235      0.552735
  C       2.913368     10.161923      0.013983
  H       3.504692     10.115310      0.944941
  H       3.607324     10.423668     -0.803686
  C       5.514221     -0.175831      0.019359
  H       6.583145     -0.243661      0.071101
  H      -0.250598     -7.200651      0.178746
  H       2.193460     10.989958      0.118540
  H      -0.999913      0.088629     -0.278781
46
Coordinates from ORCA-job opt E -739.695991571752
  C       4.304125     -0.099956     -0.034153
  C       0.094454      0.043247     -0.236710
  C       0.726615     -1.204417     -0.111011
  C       2.122781     -1.212403     -0.048727
  C       2.873843     -0.019913     -0.106158
  C       2.227427      1.235177     -0.231241
  C       0.827304      1.229907     -0.295037
  H       2.669345     -2.150878      0.046969
  H       0.289414      2.173958     -0.392947
  C      -0.116551     -2.467576     -0.045036
  H      -0.787635     -2.481659     -0.924209
  H      -0.789382     -2.389709      0.829943
  C       0.635783     -3.799158      0.026296
  H       1.305865     -3.895208     -0.847982
  H       1.289659     -3.811780      0.917699
  C      -0.301854     -5.011203      0.077257
  H      -0.974183     -4.915462      0.950266
  H      -0.958739     -5.001474     -0.812508
  C       0.443120     -6.346589      0.149370
  H       1.082877     -6.400187      1.047197
  H       1.095725     -6.489141     -0.729260
  C       3.052278      2.506794     -0.285686
  H       3.660689      2.564325      0.636198
  H       3.794348      2.405558     -1.098909
  C       2.286715      3.820001     -0.463779
  H       1.691242      3.786189     -1.394370
  H       1.565478      3.956602      0.361444
  C       3.219913      5.039799     -0.513055
  H       3.834941      5.076460      0.407973
  H       3.958611      4.885630     -1.334339
  C       2.511235      6.342787     -0.695433
  H       1.585133      6.349543     -1.284618
  C       3.174885      7.651494     -0.412388
  H       3.897084      7.899627     -1.225884
  H       3.802618      7.561261      0.496802
  C       2.202273      8.830186     -0.253657
  H       1.590885      8.917136     -1.171025
  H       1.493998      8.603516      0.563621
  C       2.906582     10.160141      0.023114
  H       3.503670     10.111819      0.950292
  H       3.594599     10.428192     -0.797524
  C       5.516219     -0.177619      0.026114
  H       6.584950     -0.246153      0.080848
  H      -0.255892     -7.197868      0.187070
  H       2.184025     10.984840      0.135457
  H      -0.997533      0.089344     -0.290350
46
Coordinates from ORCA-job opt E -739.695996258747
  C       4.304874     -0.100065     -0.027619
  C       0.095632      0.043166     -0.244951
  C       0.727326     -1.204206     -0.113862
  C       2.123247     -1.212269     -0.046673
  C       2.874965     -0.020228     -0.104747
  C       2.228936      1.234606     -0.235444
  C       0.829143      1.229298     -0.303811
  H       2.668807     -2.150888      0.053467
  H       0.290843      2.172714     -0.405921
  C      -0.115998     -2.467249     -0.047591
  H      -0.785667     -2.482361     -0.927860
  H      -0.790694     -2.387993      0.825880
  C       0.635641     -3.798942      0.026973
  H       1.307530     -3.896369     -0.845771
  H       1.287590     -3.810889      0.919795
  C      -0.302710     -5.010513      0.077508
  H      -0.976563     -4.913319      0.949181
  H      -0.957932     -5.001334     -0.813490
  C       0.441332     -6.346220      0.152463
  H       1.079756     -6.399075      1.051285
  H       1.095129     -6.490384     -0.725016
  C       3.054201      2.505950     -0.291708
  H       3.666430      2.561977      0.627675
  H       3.792854      2.405085     -1.108158
  C       2.288372      3.819686     -0.464871
  H       1.689285      3.787395     -1.393181
  H       1.570308      3.954531      0.363399
  C       3.221078      5.039576     -0.515853
  H       3.841134      5.073694      0.401982
  H       3.954352      4.890061     -1.342630
  C       2.509744      6.342620     -0.688604
  H       1.574235      6.348432     -1.262883
  C       3.175146      7.652687     -0.415323
  H       3.886228      7.900353     -1.238475
  H       3.813561      7.564060      0.486586
  C       2.201881      8.829181     -0.245222
  H       1.579650      8.914878     -1.155391
  H       1.503760      8.600929      0.580265
  C       2.906322     10.160851      0.023323
  H       3.514326     10.113756      0.943439
  H       3.584120     10.430430     -0.805275
  C       5.516755     -0.177432      0.037163
  H       6.585277     -0.245923      0.095871
  H      -0.258278     -7.197004      0.190292
  H       2.183275     10.983931      0.144019
  H      -0.996259      0.087996     -0.302302
46
Coordinates from ORCA-job opt E -739.695999053792
  C       4.303993     -0.099044     -0.019986
  C       0.095379      0.041847     -0.250332
  C       0.727206     -1.205028     -0.115214
  C       2.122929     -1.212411     -0.043556
  C       2.874308     -0.020154     -0.101380
  C       2.228091      1.234157     -0.236580
  C       0.828539      1.228178     -0.309060
  H       2.668303     -2.150773      0.059972
  H       0.289670      2.170928     -0.414345
  C      -0.115666     -2.468406     -0.049589
  H      -0.784199     -2.484013     -0.930720
  H      -0.791676     -2.389160      0.822893
  C       0.636247     -3.799827      0.026362
  H       1.309912     -3.896981     -0.845049
  H       1.286422     -3.811728      0.920477
  C      -0.301843     -5.011708      0.074983
  H      -0.977280     -4.914794      0.945461
  H      -0.955453     -5.002515     -0.817199
  C       0.442407     -6.347212      0.151027
  H       1.079450     -6.399990      1.050835
  H       1.097598     -6.491215     -0.725436
  C       3.053158      2.505621     -0.293993
  H       3.669351      2.559915      0.622764
  H       3.788282      2.406081     -1.113865
  C       2.286495      3.819607     -0.461501
  H       1.683582      3.789097     -1.387366
  H       1.571864      3.952366      0.370090
  C       3.218416      5.039823     -0.514112
  H       3.844016      5.071239      0.400108
  H       3.946453      4.894522     -1.346232
  C       2.505214      6.343014     -0.678289
  H       1.561879      6.348293     -1.239679
  C       3.174852      7.653563     -0.417869
  H       3.874748      7.897348     -1.251684
  H       3.824892      7.567710      0.475950
  C       2.204128      8.830751     -0.238803
  H       1.570192      8.913846     -1.141092
  H       1.516816      8.605008      0.596374
  C       2.912091     10.163176      0.016523
  H       3.531850     10.118821      0.928896
  H       3.579244     10.430027     -0.821537
  C       5.515728     -0.175457      0.048577
  H       6.584104     -0.243307      0.110603
  H      -0.257066     -7.198161      0.187741
  H       2.190725     10.986727      0.143833
  H      -0.996407      0.085398     -0.311066
