%chk=AMF000-opt
%NProcShared=8
#P bmk/6-31+g ! ASE formatted method and basis
opt(modredun,calcfc) freq

Gaussian input prepared by ASE

0 1
C                -7.0795932500       -0.0000000000       -0.0000000000
H                -6.8386386900        0.5514199100       -0.9157737100
H                -7.7344252400       -0.8443017300       -0.2516194500
H                -7.6272350900        0.6544017300        0.6877365300
C                -5.8453868100       -0.5309712400        0.7121122700
O                -5.9135774600       -1.0415150300        1.8492129900
N                -4.6682995700       -0.4303569000        0.0399844500
H                -4.5967708800        0.0148288800       -0.8672138200
C                -3.4155608100       -0.9067326600        0.6061183400
H                -3.3616229500       -0.5811317300        1.6555414300
C                -3.3120718000       -2.4543200200        0.5584323400
H                -2.3775691100       -2.8041728300        1.0153469200
H                -4.1573689300       -2.8758660800        1.1141585200
H                -3.3499558000       -2.7989236000       -0.4828304100
C                -2.2853152300       -0.2569362000       -0.2039615200
O                -2.5111355300        0.2914397800       -1.3055552700
N                -1.0487774400       -0.3360054500        0.3356157400
H                -0.8738438400       -0.8520702800        1.1923941700
C                 0.1496396900        0.1089488400       -0.3609334200
H                -0.0354885500        0.0348195200       -1.4416573300
C                 0.5453504100        1.5740280100       -0.0000000000
H                 1.4802527900        1.8292366800       -0.5203675900
H                 0.7396695100        1.6263355100        1.0815756400
C                -0.5467235900        2.5832988500       -0.3830443800
H                -1.4686347400        2.3975883800        0.1773258200
H                -0.7669485800        2.5447472100       -1.4554280300
S                 0.0694936100        4.3228910900        0.0447732300
C                -1.4506688900        5.2977544300       -0.4919711500
H                -1.2203635100        6.3530968300       -0.3208563900
H                -1.6446025000        5.1277990600       -1.5554489300
H                -2.3149570200        5.0030115700        0.1110059900
C                 1.2859698300       -0.8364994000        0.0656545700
O                 1.1920109000       -1.5068150600        1.1133905700
N                 2.3833392300       -0.8379144500       -0.7262707900
H                 2.4509878600       -0.2229886000       -1.5291491800
C                 3.5947059300       -1.5727222700       -0.3973051000
H                 3.5202354600       -1.8735654600        0.6553017700
C                 3.7750517500       -2.8415828800       -1.2951959700
H                 4.7192453900       -3.3281309900       -1.0085232900
H                 3.8816440300       -2.5014207100       -2.3351419700
C                 2.6225060200       -3.8251306600       -1.1799563000
C                 1.5917919700       -3.8330240700       -2.1400239000
H                 1.6319618000       -3.1352410800       -2.9756417500
C                 0.5217934600       -4.7380426300       -2.0355581900
H                -0.2649803200       -4.7340961300       -2.7875022400
C                 0.4715633000       -5.6477159200       -0.9664985100
H                -0.3551514600       -6.3501744600       -0.8840878100
C                 1.4957583500       -5.6475062500       -0.0030694900
H                 1.4631451700       -6.3485621300        0.8284889100
C                 2.5631233000       -4.7427818600       -0.1116521800
H                 3.3530801300       -4.7477774200        0.6394088300
C                 4.7815631400       -0.6274059000       -0.6420862200
O                 4.7389893100        0.1936607400       -1.5793856500
N                 5.8571712800       -0.7837154600        0.1664424300
H                 5.7971283500       -1.4210324600        0.9470023100
C                 7.0795932500        0.0000000000        0.0000000000
H                 7.9555686000       -0.6351609000        0.1707381900
H                 7.1007492100        0.3852963900       -1.0235935700
H                 7.1048313600        0.8505735000        0.6940758300


