39
Coordinates from ORCA-job opt_EPRII E -698.028644384051
  C       3.991788     -0.049240      0.058108
  C       2.775740      0.000818      0.040924
  C      -2.904926      0.001969     -0.021065
  C       1.348501      0.035970      0.024651
  C       0.635243      1.290110      0.014122
  C      -0.786025      1.210124     -0.000914
  C      -1.471080     -0.005896     -0.005830
  C      -0.755051     -1.242724      0.004473
  C       0.640732     -1.178015      0.019328
  H      -1.371296      2.129824     -0.008865
  H       1.223342     -2.098995      0.027465
  C       1.310813      2.530858      0.018832
  H       2.403663      2.505003      0.030818
  C       0.641084      3.872285      0.008661
  H      -0.020408      3.959192     -0.878174
  H      -0.042671      3.961660      0.878176
  C       1.626345      5.048246      0.019383
  H       2.275422      4.965813      0.910219
  H       2.296697      4.963937     -0.855394
  C       0.933467      6.412041      0.009601
  H       0.280768      6.536675      0.890987
  H       0.302265      6.534793     -0.887575
  C      -1.517430     -2.551443     -0.000599
  H      -2.203439     -2.555198      0.867109
  H      -2.188523     -2.557024     -0.879837
  C      -0.686654     -3.837261      0.007762
  H      -0.015119     -3.856287     -0.870392
  H      -0.031197     -3.855470      0.897992
  C      -1.555555     -5.100742      0.000739
  H      -2.229365     -5.083796      0.877444
  H      -2.214538     -5.084219     -0.887176
  C      -0.737137     -6.394159      0.007906
  H      -0.093627     -6.456407      0.902512
  H      -0.079125     -6.457034     -0.876030
  C      -4.120621      0.011732     -0.035488
  H       5.062776     -0.099657      0.078803
  H      -5.192882      0.026348     -0.050615
  H       1.665288      7.235733      0.017560
  H      -1.387506     -7.283908      0.002941
39
Coordinates from ORCA-job opt_EPRII E -698.029553108669
  C       3.996735     -0.043399      0.055470
  C       2.776513      0.002445      0.039214
  C      -2.913217      0.001652     -0.022026
  C       1.346924      0.035864      0.023889
  C       0.632527      1.292121      0.013606
  C      -0.791776      1.213054     -0.001612
  C      -1.477091     -0.006045     -0.006509
  C      -0.759969     -1.245575      0.003823
  C       0.638775     -1.181072      0.018637
  H      -1.373614      2.128211     -0.009653
  H       1.218095     -2.097370      0.026485
  C       1.311435      2.534753      0.018567
  H       2.398157      2.508137      0.030667
  C       0.642952      3.881030      0.008563
  H      -0.012321      3.970150     -0.874023
  H      -0.035587      3.971714      0.873201
  C       1.633556      5.057434      0.020692
  H       2.277117      4.974319      0.906713
  H       2.299751      4.973386     -0.848366
  C       0.941482      6.426912      0.011024
  H       0.292938      6.551020      0.886392
  H       0.315669      6.550000     -0.880882
  C      -1.523472     -2.557187     -0.001247
  H      -2.204804     -2.562007      0.861885
  H      -2.189042     -2.564472     -0.876542
  C      -0.688217     -3.844301      0.008140
  H      -0.020608     -3.863267     -0.864653
  H      -0.037685     -3.861704      0.893773
  C      -1.557298     -5.112253      0.001126
  H      -2.227071     -5.096260      0.872198
  H      -2.210909     -5.097673     -0.882165
  C      -0.734566     -6.408528      0.009747
  H      -0.096261     -6.468106      0.899198
  H      -0.080249     -6.469628     -0.867877
  C      -4.132856      0.009397     -0.036654
  H       5.061109     -0.089332      0.074802
  H      -5.198279      0.021981     -0.051650
  H       1.670474      7.244039      0.019904
  H      -1.379553     -7.293784      0.004702
39
Coordinates from ORCA-job opt_EPRII E -698.029600248605
  C       3.996177     -0.040744      0.053352
  C       2.775269      0.001918      0.037457
  C      -2.915507      0.002371     -0.022853
  C       1.345211      0.034845      0.022375
  C       0.631213      1.291743      0.012444
  C      -0.793782      1.214467     -0.002668
  C      -1.478896     -0.005487     -0.007540
  C      -0.762456     -1.245860      0.002778
  C       0.637023     -1.182782      0.017343
  H      -1.374603      2.129905     -0.010563
  H       1.215333     -2.099336      0.025163
  C       1.311792      2.534167      0.017799
  H       2.398087      2.507555      0.029940
  C       0.642558      3.881754      0.008184
  H      -0.009609      3.972346     -0.875285
  H      -0.034316      3.972604      0.872810
  C       1.636688      5.057077      0.022132
  H       2.277708      4.973473      0.908908
  H       2.302124      4.973830     -0.846527
  C       0.943649      6.428284      0.012735
  H       0.295202      6.550694      0.887580
  H       0.319600      6.550892     -0.879655
  C      -1.527162     -2.557807     -0.002049
  H      -2.206850     -2.563042      0.861291
  H      -2.190271     -2.566379     -0.878141
  C      -0.688023     -3.844082      0.008439
  H      -0.021484     -3.863137     -0.864140
  H      -0.039419     -3.860590      0.894493
  C      -1.557846     -5.113356      0.001685
  H      -2.226597     -5.097924      0.872489
  H      -2.209220     -5.100531     -0.882236
  C      -0.731482     -6.409627      0.011795
  H      -0.094696     -6.466168      0.901722
  H      -0.077299     -6.468776     -0.865241
  C      -4.135715      0.008397     -0.037243
  H       5.060884     -0.083597      0.071960
  H      -5.201348      0.019385     -0.051843
  H       1.673286      7.244087      0.022866
  H      -1.375462     -7.294910      0.006808
39
Coordinates from ORCA-job opt_EPRII E -698.029615805940
  C       3.996001     -0.036846      0.050882
  C       2.774912      0.001837      0.035690
  C      -2.915415      0.002563     -0.023441
  C       1.344702      0.034226      0.021164
  C       0.631101      1.291338      0.011477
  C      -0.794099      1.215411     -0.003460
  C      -1.478602     -0.005089     -0.008201
  C      -0.762913     -1.245744      0.001924
  C       0.636864     -1.183737      0.016194
  H      -1.374296      2.131261     -0.011299
  H       1.214590     -2.100639      0.023822
  C       1.312608      2.533481      0.016965
  H       2.398905      2.507479      0.029008
  C       0.642080      3.881490      0.007525
  H      -0.006998      3.973134     -0.877816
  H      -0.034002      3.971966      0.872497
  C       1.638359      5.056051      0.023838
  H       2.276743      4.972306      0.912355
  H       2.303872      4.974039     -0.844736
  C       0.943899      6.427931      0.014410
  H       0.294689      6.548101      0.888977
  H       0.321660      6.549580     -0.879353
  C      -1.528983     -2.557686     -0.002886
  H      -2.207672     -2.562931      0.861000
  H      -2.189885     -2.567064     -0.880421
  C      -0.687958     -3.843810      0.008787
  H      -0.022141     -3.863707     -0.864132
  H      -0.041153     -3.860165      0.895972
  C      -1.559364     -5.113054      0.002159
  H      -2.227561     -5.097481      0.873231
  H      -2.208669     -5.101298     -0.883143
  C      -0.731235     -6.409626      0.013882
  H      -0.095883     -6.463727      0.904971
  H      -0.076780     -6.467404     -0.863030
  C      -4.135680      0.006046     -0.037671
  H       5.061018     -0.075922      0.068290
  H      -5.201480      0.014762     -0.051869
  H       1.674152      7.243269      0.026190
  H      -1.375626     -7.294683      0.008814
39
Coordinates from ORCA-job opt_EPRII E -698.029618198165
  C       3.996177     -0.034869      0.049412
  C       2.775135      0.001676      0.034431
  C      -2.914728      0.002625     -0.023886
  C       1.344955      0.034010      0.019956
  C       0.631561      1.291147      0.010506
  C      -0.793580      1.215521     -0.004263
  C      -1.477904     -0.004984     -0.008965
  C      -0.762512     -1.245600      0.001124
  C       0.637226     -1.183864      0.015163
  H      -1.373604      2.131524     -0.011974
  H       1.214816     -2.100934      0.022779
  C       1.313162      2.533187      0.016093
  H       2.399515      2.507606      0.027933
  C       0.642158      3.881067      0.006877
  H      -0.005428      3.973236     -0.879596
  H      -0.034391      3.970818      0.871638
  C       1.638403      5.055668      0.025171
  H       2.275364      4.971667      0.914787
  H       2.304679      4.974601     -0.843016
  C       0.943411      6.427439      0.015802
  H       0.293250      6.546336      0.889938
  H       0.322334      6.548963     -0.878886
  C      -1.528985     -2.557393     -0.003532
  H      -2.207656     -2.562282      0.860440
  H      -2.189094     -2.567088     -0.881741
  C      -0.688186     -3.843742      0.008988
  H      -0.022470     -3.864405     -0.864092
  H      -0.042001     -3.859999      0.896729
  C      -1.560155     -5.112628      0.002678
  H      -2.228370     -5.096544      0.873834
  H      -2.208737     -5.101297     -0.883268
  C      -0.732138     -6.409414      0.015424
  H      -0.097380     -6.462670      0.907089
  H      -0.077440     -6.467201     -0.861409
  C      -4.134888      0.004672     -0.037774
  H       5.061307     -0.071984      0.066199
  H      -5.200738      0.012181     -0.051478
  H       1.673725      7.242830      0.028978
  H      -1.377031     -7.294216      0.010475
39
Coordinates from ORCA-job opt_EPRII E -698.029619452467
  C       3.996413     -0.033174      0.047570
  C       2.775380      0.001327      0.033136
  C      -2.914284      0.002838     -0.024220
  C       1.345227      0.033774      0.019055
  C       0.632037      1.290985      0.009660
  C      -0.793058      1.215482     -0.004908
  C      -1.477463     -0.004897     -0.009400
  C      -0.762281     -1.245513      0.000553
  C       0.637410     -1.183920      0.014344
  H      -1.372937      2.131600     -0.012630
  H       1.214871     -2.101125      0.021839
  C       1.313645      2.532956      0.015122
  H       2.400031      2.507650      0.026712
  C       0.642481      3.880702      0.005901
  H      -0.003463      3.973424     -0.881803
  H      -0.035347      3.969617      0.869808
  C       1.638317      5.055497      0.026804
  H       2.273587      4.971061      0.917660
  H       2.306053      4.975323     -0.840424
  C       0.943084      6.427112      0.017213
  H       0.291422      6.544997      0.890424
  H       0.323590      6.548898     -0.878594
  C      -1.528889     -2.557162     -0.004070
  H      -2.207877     -2.561709      0.859712
  H      -2.188430     -2.567077     -0.882778
  C      -0.688541     -3.843716      0.009252
  H      -0.022727     -3.864996     -0.863822
  H      -0.042719     -3.859763      0.897343
  C      -1.560655     -5.112381      0.003257
  H      -2.229067     -5.095822      0.874333
  H      -2.208806     -5.101423     -0.883088
  C      -0.732916     -6.409292      0.016907
  H      -0.098591     -6.462039      0.908965
  H      -0.077950     -6.467345     -0.859766
  C      -4.134374      0.003558     -0.037932
  H       5.061620     -0.068498      0.063337
  H      -5.200238      0.010042     -0.051242
  H       1.673335      7.242577      0.032244
  H      -1.378126     -7.293908      0.012087
39
Coordinates from ORCA-job opt_EPRII E -698.029620490513
  C       3.996663     -0.031218      0.044752
  C       2.775587      0.000837      0.030796
  C      -2.914081      0.003186     -0.025068
  C       1.345454      0.033471      0.016926
  C       0.632487      1.290820      0.007787
  C      -0.792597      1.215399     -0.006488
  C      -1.477264     -0.004790     -0.010752
  C      -0.762282     -1.245481     -0.000761
  C       0.637393     -1.184004      0.012603
  H      -1.372313      2.131631     -0.014119
  H       1.214679     -2.101341      0.020115
  C       1.314108      2.532726      0.013254
  H       2.400505      2.507570      0.024443
  C       0.642962      3.880406      0.004222
  H      -0.000515      3.974298     -0.885220
  H      -0.037269      3.967932      0.866399
  C       1.638335      5.055380      0.029627
  H       2.271002      4.969828      0.922261
  H       2.308626      4.976572     -0.835798
  C       0.943022      6.426885      0.019914
  H       0.288848      6.543405      0.891447
  H       0.326096      6.549720     -0.877540
  C      -1.528922     -2.557006     -0.004981
  H      -2.208454     -2.560921      0.858404
  H      -2.187947     -2.567439     -0.884119
  C      -0.688976     -3.843704      0.009649
  H      -0.022983     -3.865865     -0.863312
  H      -0.043357     -3.859068      0.897946
  C      -1.561044     -5.112275      0.004530
  H      -2.229709     -5.094934      0.875438
  H      -2.208947     -5.102064     -0.882046
  C      -0.733534     -6.409242      0.019529
  H      -0.099518     -6.461256      0.911868
  H      -0.078322     -6.468033     -0.856930
  C      -4.134149      0.002357     -0.038222
  H       5.061947     -0.064523      0.059320
  H      -5.200021      0.007760     -0.050701
  H       1.673164      7.242384      0.038150
  H      -1.378912     -7.293742      0.015239
