39
Coordinates from ORCA-job opt E -697.940451932600
  C       4.021255     -0.105555     -0.005288
  C       2.818585     -0.052359      0.000049
  C      -2.818573      0.051745      0.000055
  C       1.393659      0.000000      0.000000
  C       0.714960      1.237147     -0.000000
  C      -0.672358      1.202059     -0.000217
  C      -1.393659     -0.000000     -0.000000
  C      -0.714822     -1.237125      0.000202
  C       0.672385     -1.202227      0.000465
  H      -1.234707      2.125148     -0.000887
  H       1.234543     -2.125420      0.000501
  C       1.500316      2.530052      0.003117
  H       2.148685      2.534853      0.886733
  C       0.693094      3.826397     -0.031015
  H       0.055703      3.845082     -0.922042
  H       0.018245      3.868977      0.831235
  C       1.582505      5.071449     -0.027653
  H       2.223927      5.053627      0.860219
  H       2.257870      5.035325     -0.889591
  C       0.790682      6.377272     -0.056776
  H       0.133172      6.461776      0.812750
  H       0.163563      6.440674     -0.950268
  C      -1.500315     -2.530072     -0.001108
  H      -2.169550     -2.525019      0.866666
  H      -2.169751     -2.522131     -0.868668
  C      -0.693122     -3.826648     -0.003657
  H      -0.035552     -3.855138     -0.879752
  H      -0.038107     -3.859801      0.874098
  C      -1.582598     -5.071540     -0.008963
  H      -2.244242     -5.046953      0.863949
  H      -2.238133     -5.042350     -0.886170
  C      -0.790535     -6.377632     -0.009557
  H      -0.152401     -6.454678      0.874998
  H      -0.143909     -6.448783     -0.888409
  C      -4.021148      0.107043     -0.002842
  H       5.082584     -0.153298     -0.008132
  H      -5.082515      0.153992     -0.004083
  H       1.454567      7.243811     -0.055741
  H      -1.454541     -7.244044     -0.015654
39
Coordinates from ORCA-job opt E -697.950604558826
  C       4.006704     -0.056798      0.037230
  C       2.793076     -0.016172      0.038928
  C      -2.872797      0.021004      0.020565
  C       1.362771      0.018847      0.034561
  C       0.662929      1.255964      0.047699
  C      -0.735608      1.204452      0.036124
  C      -1.441669     -0.010676      0.023782
  C      -0.741796     -1.245258      0.014646
  C       0.652302     -1.195080      0.020080
  H      -1.314586      2.126438      0.042076
  H       1.228920     -2.118581      0.011910
  C       1.419956      2.535135      0.071819
  H       2.173362      2.524436      0.876839
  C       0.679095      3.858136      0.010312
  H       0.000760      3.873842     -0.861847
  H       0.035280      3.958424      0.906044
  C       1.621873      5.066597     -0.064451
  H       2.301336      5.051392      0.806276
  H       2.266205      4.969203     -0.955129
  C       0.881336      6.405347     -0.111024
  H       0.256067      6.548910      0.785990
  H       0.217705      6.464848     -0.989449
  C      -1.513911     -2.549627     -0.002077
  H      -2.191942     -2.559797      0.869797
  H      -2.186257     -2.540242     -0.878360
  C      -0.690512     -3.839690     -0.014024
  H      -0.024336     -3.852268     -0.894904
  H      -0.032825     -3.873875      0.872660
  C      -1.567417     -5.096727     -0.034074
  H      -2.237778     -5.087455      0.843898
  H      -2.226095     -5.066404     -0.920330
  C      -0.757532     -6.395310     -0.044154
  H      -0.115775     -6.473379      0.848892
  H      -0.101645     -6.450802     -0.928585
  C      -4.086525      0.059544      0.014989
  H       5.077950     -0.093371      0.037431
  H      -5.157980      0.091979      0.011307
  H       1.584550      7.250143     -0.166293
  H      -1.415429     -7.277466     -0.060590
39
Coordinates from ORCA-job opt E -697.956497153982
  C       4.005636     -0.036990      0.081617
  C       2.788190      0.002374      0.076314
  C      -2.890717      0.015054      0.023396
  C       1.356853      0.032163      0.063736
  C       0.647240      1.273441      0.081638
  C      -0.759697      1.213569      0.057131
  C      -1.457028     -0.006006      0.033535
  C      -0.747801     -1.240648      0.021574
  C       0.649416     -1.184968      0.036335
  H      -1.344126      2.134910      0.066280
  H       1.230146     -2.107991      0.024865
  C       1.372175      2.530272      0.118624
  H       2.225506      2.509055      0.814749
  C       0.666680      3.857087      0.057277
  H      -0.065103      3.864966     -0.774033
  H       0.074650      3.993709      0.989968
  C       1.626798      5.045417     -0.102233
  H       2.356274      5.037515      0.730707
  H       2.218378      4.909983     -1.026618
  C       0.907933      6.396709     -0.141514
  H       0.335780      6.575397      0.787126
  H       0.194374      6.447304     -0.983898
  C      -1.515701     -2.548271     -0.007447
  H      -2.201671     -2.564660      0.861619
  H      -2.184941     -2.535691     -0.889496
  C      -0.688268     -3.836782     -0.020795
  H      -0.014538     -3.842387     -0.899340
  H      -0.034381     -3.873378      0.871904
  C      -1.561231     -5.097284     -0.052579
  H      -2.239076     -5.094041      0.823124
  H      -2.216534     -5.064438     -0.944657
  C      -0.745993     -6.393233     -0.063847
  H      -0.107613     -6.473568      0.834591
  H      -0.082534     -6.442306     -0.946252
  C      -4.108185      0.044454      0.012037
  H       5.078630     -0.072330      0.087654
  H      -5.181565      0.069204      0.003137
  H       1.622475      7.228729     -0.259001
  H      -1.400668     -7.280683     -0.088664
39
Coordinates from ORCA-job opt E -697.960683272032
  C       3.999104     -0.035571      0.125855
  C       2.781886      0.007092      0.111481
  C      -2.898230      0.010058      0.016201
  C       1.352209      0.036984      0.088298
  C       0.639681      1.284352      0.105483
  C      -0.773803      1.215664      0.067796
  C      -1.464229     -0.004149      0.035077
  C      -0.750903     -1.238774      0.024223
  C       0.646204     -1.179590      0.050207
  H      -1.360312      2.134900      0.077934
  H       1.227967     -2.101697      0.039016
  C       1.342748      2.529192      0.151437
  H       2.282561      2.501722      0.718986
  C       0.659505      3.861870      0.107407
  H      -0.128919      3.866686     -0.669659
  H       0.132287      4.028711      1.074808
  C       1.622686      5.033605     -0.139297
  H       2.405783      5.029483      0.643088
  H       2.149118      4.870000     -1.097665
  C       0.920697      6.393459     -0.157320
  H       0.413957      6.597593      0.803095
  H       0.153027      6.438669     -0.950851
  C      -1.516122     -2.547172     -0.014589
  H      -2.209256     -2.566826      0.848743
  H      -2.179390     -2.532996     -0.901080
  C      -0.686840     -3.834198     -0.025090
  H      -0.006328     -3.835975     -0.898273
  H      -0.039490     -3.871706      0.872148
  C      -1.556896     -5.096250     -0.066271
  H      -2.241316     -5.095940      0.804145
  H      -2.206017     -5.062323     -0.962624
  C      -0.739075     -6.390119     -0.074549
  H      -0.106831     -6.471286      0.827935
  H      -0.068951     -6.435949     -0.951897
  C      -4.115263      0.033258     -0.002483
  H       5.071641     -0.073817      0.139437
  H      -5.188382      0.053029     -0.018003
  H       1.635786      7.213146     -0.338476
  H      -1.390533     -7.279478     -0.106108
39
Coordinates from ORCA-job opt E -697.963796112458
  C       3.993250     -0.042651      0.171679
  C       2.777165      0.005043      0.146977
  C      -2.900665      0.007388      0.004691
  C       1.349542      0.037515      0.111803
  C       0.637235      1.290798      0.124648
  C      -0.781129      1.214372      0.075532
  C      -1.466950     -0.003345      0.034753
  C      -0.752271     -1.238875      0.026763
  C       0.643684     -1.177088      0.064897
  H      -1.368004      2.132620      0.084639
  H       1.225542     -2.098558      0.056292
  C       1.326218      2.530879      0.175655
  H       2.334803      2.501981      0.600964
  C       0.656724      3.870192      0.158583
  H      -0.187391      3.874312     -0.555571
  H       0.202750      4.063255      1.156983
  C       1.611975      5.026730     -0.176816
  H       2.448664      5.024493      0.546469
  H       2.065779      4.841122     -1.167177
  C       0.925132      6.393546     -0.166304
  H       0.491457      6.617839      0.823913
  H       0.103086      6.435774     -0.902442
  C      -1.515860     -2.547062     -0.021174
  H      -2.216173     -2.569087      0.835576
  H      -2.172095     -2.531635     -0.912108
  C      -0.685858     -3.833173     -0.027672
  H       0.001399     -3.832344     -0.894699
  H      -0.045936     -3.871813      0.873940
  C      -1.554221     -5.095749     -0.078101
  H      -2.245128     -5.097378      0.786264
  H      -2.196200     -5.060462     -0.978609
  C      -0.735532     -6.388537     -0.082531
  H      -0.110369     -6.470887      0.823911
  H      -0.058875     -6.432194     -0.954107
  C      -4.116333      0.026852     -0.023400
  H       5.064825     -0.085455      0.193867
  H      -5.188699      0.043864     -0.047436
  H       1.633165      7.201654     -0.411335
  H      -1.384942     -7.278279     -0.120753
39
Coordinates from ORCA-job opt E -697.965818240261
  C       3.988803     -0.048402      0.222169
  C       2.773424      0.003575      0.185809
  C      -2.902620      0.007112     -0.007062
  C       1.347208      0.038429      0.137234
  C       0.635519      1.295562      0.143567
  C      -0.786029      1.213561      0.085562
  C      -1.469156     -0.001862      0.036466
  C      -0.753739     -1.238837      0.031582
  C       0.641090     -1.174636      0.082327
  H      -1.372517      2.131897      0.092462
  H       1.223335     -2.095683      0.077937
  C       1.315844      2.531940      0.197429
  H       2.373739      2.502648      0.471834
  C       0.658715      3.877681      0.210651
  H      -0.238279      3.882242     -0.433999
  H       0.284620      4.095371      1.235511
  C       1.597108      5.017589     -0.216923
  H       2.486521      5.016293      0.439235
  H       1.970891      4.811720     -1.235890
  C       0.927380      6.392012     -0.175174
  H       0.574106      6.635675      0.841521
  H       0.051899      6.433154     -0.845994
  C      -1.515780     -2.546727     -0.026014
  H      -2.223238     -2.571915      0.824420
  H      -2.164988     -2.529590     -0.921674
  C      -0.684813     -3.832043     -0.029729
  H       0.009082     -3.827916     -0.890992
  H      -0.052006     -3.872750      0.876314
  C      -1.551613     -5.095126     -0.090497
  H      -2.248785     -5.099778      0.768333
  H      -2.186786     -5.057476     -0.995229
  C      -0.732060     -6.387142     -0.092910
  H      -0.113563     -6.471760      0.817438
  H      -0.049166     -6.427603     -0.959327
  C      -4.117434      0.023807     -0.046500
  H       5.059663     -0.095240      0.254187
  H      -5.189254      0.038964     -0.080828
  H       1.622741      7.188013     -0.486101
  H      -1.380096     -7.277100     -0.138581
39
Coordinates from ORCA-job opt E -697.966725230034
  C       3.982938     -0.050131      0.270689
  C       2.768031      0.004601      0.221582
  C      -2.906741      0.006059     -0.019527
  C       1.342749      0.040721      0.158573
  C       0.630616      1.299482      0.158428
  C      -0.792711      1.213338      0.095780
  C      -1.473622     -0.000949      0.037573
  C      -0.756814     -1.238856      0.035396
  C       0.637078     -1.171996      0.097113
  H      -1.379303      2.131534      0.101432
  H       1.220381     -2.092386      0.098540
  C       1.307623      2.533030      0.217622
  H       2.393737      2.501955      0.337759
  C       0.664844      3.885426      0.257634
  H      -0.275324      3.893334     -0.320968
  H       0.365919      4.124174      1.301306
  C       1.583011      5.007638     -0.252806
  H       2.517096      5.003399      0.337222
  H       1.879196      4.784953     -1.293293
  C       0.934089      6.390932     -0.180462
  H       0.657936      6.650407      0.855840
  H       0.013597      6.435422     -0.787003
  C      -1.516677     -2.547006     -0.029699
  H      -2.229505     -2.575582      0.816101
  H      -2.160632     -2.528934     -0.929049
  C      -0.683719     -3.831078     -0.031745
  H       0.014960     -3.823665     -0.888990
  H      -0.055867     -3.872952      0.877535
  C      -1.548117     -5.095415     -0.100079
  H      -2.249359     -5.103470      0.755277
  H      -2.178912     -5.056348     -1.007664
  C      -0.726508     -6.386128     -0.102063
  H      -0.112076     -6.472027      0.810782
  H      -0.039653     -6.423191     -0.965374
  C      -4.121069      0.019323     -0.070408
  H       5.053189     -0.099793      0.313695
  H      -5.192440      0.032110     -0.115200
  H       1.614768      7.174564     -0.550010
  H      -1.372949     -7.276835     -0.152978
39
Coordinates from ORCA-job opt E -697.966811046693
  C       3.977299     -0.044298      0.278123
  C       2.762347      0.008888      0.228149
  C      -2.912202      0.001920     -0.016634
  C       1.336864      0.043156      0.164427
  C       0.622554      1.299882      0.166162
  C      -0.799830      1.212368      0.104802
  C      -1.479267     -0.003074      0.042993
  C      -0.760579     -1.239809      0.038944
  C       0.633140     -1.170888      0.100833
  H      -1.387780      2.129759      0.111108
  H       1.218095     -2.090243      0.101802
  C       1.301066      2.534974      0.229072
  H       2.391058      2.500989      0.314126
  C       0.664131      3.890695      0.262421
  H      -0.277207      3.900411     -0.314746
  H       0.368003      4.136273      1.305163
  C       1.587096      5.005443     -0.255740
  H       2.522854      4.998539      0.331691
  H       1.878535      4.777118     -1.296448
  C       0.946032      6.392785     -0.187097
  H       0.673262      6.657202      0.848913
  H       0.024719      6.439931     -0.792181
  C      -1.518373     -2.549055     -0.027980
  H      -2.230330     -2.580638      0.818461
  H      -2.163163     -2.530359     -0.926722
  C      -0.683216     -3.831760     -0.033318
  H       0.014332     -3.821659     -0.891476
  H      -0.054103     -3.874180      0.875096
  C      -1.545543     -5.097470     -0.102535
  H      -2.245081     -5.108548      0.754204
  H      -2.178108     -5.057773     -1.008889
  C      -0.721642     -6.386789     -0.108629
  H      -0.105124     -6.473212      0.802782
  H      -0.036624     -6.421032     -0.973529
  C      -4.126533      0.012623     -0.069640
  H       5.047582     -0.092824      0.322089
  H      -5.197858      0.023419     -0.116502
  H       1.630193      7.171300     -0.560977
  H      -1.366836     -7.278407     -0.159756
39
Coordinates from ORCA-job opt E -697.966835072018
  C       3.975112     -0.040329      0.275628
  C       2.759949      0.011681      0.227337
  C      -2.915067     -0.000019     -0.011336
  C       1.334024      0.044855      0.165893
  C       0.617895      1.299445      0.169846
  C      -0.803099      1.212392      0.110265
  C      -1.482165     -0.004158      0.047413
  C      -0.762416     -1.239813      0.041490
  C       0.631486     -1.170230      0.101787
  H      -1.391981      2.129467      0.117569
  H       1.217410     -2.089080      0.100991
  C       1.296866      2.535587      0.234793
  H       2.387478      2.499146      0.313206
  C       0.661337      3.892091      0.257166
  H      -0.272564      3.901262     -0.332917
  H       0.351119      4.139227      1.295639
  C       1.592443      5.004728     -0.250628
  H       2.520939      4.997058      0.348525
  H       1.896067      4.775090     -1.287716
  C       0.952629      6.393247     -0.191391
  H       0.666273      6.658563      0.840848
  H       0.039499      6.441144     -0.809062
  C      -1.519240     -2.549807     -0.025829
  H      -2.229697     -2.583163      0.821934
  H      -2.165518     -2.530559     -0.923612
  C      -0.682918     -3.831817     -0.034055
  H       0.013162     -3.820174     -0.893540
  H      -0.052133     -3.874740      0.873349
  C      -1.544301     -5.098223     -0.103038
  H      -2.241971     -5.111119      0.755352
  H      -2.178909     -5.058014     -1.008116
  C      -0.719193     -6.386866     -0.112504
  H      -0.100397     -6.473699      0.797486
  H      -0.036182     -6.419518     -0.979207
  C      -4.129626      0.009350     -0.063602
  H       5.045625     -0.088025      0.318462
  H      -5.201128      0.019157     -0.109985
  H       1.642901      7.170516     -0.556817
  H      -1.363946     -7.278996     -0.163061
39
Coordinates from ORCA-job opt E -697.966846196448
  C       3.974917     -0.039212      0.268391
  C       2.759573      0.012438      0.221947
  C      -2.916192     -0.000625     -0.007775
  C       1.333309      0.045489      0.163065
  C       0.616040      1.298666      0.168155
  C      -0.803977      1.212661      0.110534
  C      -1.483248     -0.004664      0.048747
  C      -0.763047     -1.239565      0.041929
  C       0.631185     -1.170163      0.100116
  H      -1.393423      2.129504      0.118616
  H       1.217389     -2.088905      0.098106
  C       1.294924      2.535668      0.233416
  H       2.385462      2.497573      0.312616
  C       0.658462      3.891641      0.247678
  H      -0.265156      3.900102     -0.359059
  H       0.329009      4.135864      1.281128
  C       1.597025      5.006079     -0.241519
  H       2.515488      4.997645      0.373115
  H       1.917869      4.779344     -1.274153
  C       0.955233      6.394097     -0.189729
  H       0.650544      6.656341      0.838129
  H       0.052945      6.442922     -0.823366
  C      -1.519611     -2.550040     -0.024202
  H      -2.228608     -2.583668      0.824886
  H      -2.167302     -2.530995     -0.921077
  C      -0.682853     -3.831813     -0.033609
  H       0.012011     -3.820043     -0.894213
  H      -0.050701     -3.874527      0.872998
  C      -1.543971     -5.098510     -0.101187
  H      -2.240229     -5.111703      0.758479
  H      -2.180127     -5.058577     -1.005338
  C      -0.718415     -6.386951     -0.111938
  H      -0.097912     -6.473414      0.797061
  H      -0.036944     -6.419521     -0.979989
  C      -4.130991      0.008162     -0.058165
  H       5.045584     -0.086830      0.310047
  H      -5.202664      0.017657     -0.103078
  H       1.651312      7.172837     -0.541028
  H      -1.363149     -7.279305     -0.161169
39
Coordinates from ORCA-job opt E -697.966855465926
  C       3.975780     -0.040028      0.258351
  C       2.760322      0.011796      0.213763
  C      -2.916182     -0.000502     -0.005899
  C       1.333869      0.045274      0.157575
  C       0.616159      1.297781      0.162719
  C      -0.803420      1.212856      0.107400
  C      -1.483175     -0.004883      0.048086
  C      -0.762966     -1.239373      0.041199
  C       0.631597     -1.170543      0.096984
  H      -1.393144      2.129550      0.115573
  H       1.217591     -2.089428      0.094492
  C       1.294745      2.535438      0.226065
  H       2.385162      2.496601      0.306210
  C       0.655859      3.890170      0.235328
  H      -0.255764      3.898505     -0.389815
  H       0.304405      4.128030      1.263134
  C       1.600896      5.009094     -0.229715
  H       2.507626      4.999378      0.402199
  H       1.941688      4.788620     -1.257363
  C       0.955247      6.395543     -0.183015
  H       0.629928      6.651606      0.840116
  H       0.065365      6.446015     -0.834010
  C      -1.519693     -2.550105     -0.022669
  H      -2.227327     -2.582982      0.827636
  H      -2.168675     -2.531809     -0.918677
  C      -0.682988     -3.831937     -0.032075
  H       0.010852     -3.820976     -0.893584
  H      -0.049741     -3.873960      0.873871
  C      -1.544267     -5.098650     -0.097549
  H      -2.239478     -5.111133      0.763042
  H      -2.181539     -5.059500     -1.001020
  C      -0.718763     -6.387180     -0.108166
  H      -0.097036     -6.472779      0.800146
  H      -0.038454     -6.420635     -0.977158
  C      -4.131148      0.008144     -0.054141
  H       5.046516     -0.088112      0.298931
  H      -5.202935      0.017777     -0.097384
  H       1.656550      7.177542     -0.516359
  H      -1.363700     -7.279547     -0.155655
39
Coordinates from ORCA-job opt E -697.966874678976
  C       3.978251     -0.043045      0.235710
  C       2.762669      0.009412      0.194489
  C      -2.915051      0.000278     -0.004258
  C       1.336015      0.043968      0.143468
  C       0.618358      1.296032      0.147343
  C      -0.801001      1.212945      0.097396
  C      -1.481906     -0.005115      0.044375
  C      -0.762177     -1.239304      0.038397
  C       0.632917     -1.171760      0.089064
  H      -1.390835      2.129560      0.104855
  H       1.218072     -2.091154      0.086815
  C       1.296402      2.534682      0.204053
  H       2.386824      2.495696      0.282816
  C       0.651433      3.886476      0.207238
  H      -0.233586      3.896619     -0.455987
  H       0.253521      4.107436      1.221904
  C       1.607540      5.016670     -0.202663
  H       2.488059      5.002865      0.465368
  H       1.991100      4.812678     -1.218673
  C       0.952816      6.399063     -0.163460
  H       0.584142      6.639191      0.848828
  H       0.090229      6.454537     -0.850025
  C      -1.519635     -2.550233     -0.019550
  H      -2.224574     -2.580460      0.833108
  H      -2.171196     -2.534116     -0.913760
  C      -0.683517     -3.832466     -0.027759
  H       0.008279     -3.824158     -0.890986
  H      -0.048157     -3.872500      0.876847
  C      -1.545532     -5.098941     -0.088018
  H      -2.238839     -5.108915      0.774187
  H      -2.184786     -5.061935     -0.990225
  C      -0.720609     -6.387907     -0.097026
  H      -0.096753     -6.471234      0.810081
  H      -0.042406     -6.424120     -0.967594
  C      -4.130241      0.009028     -0.047956
  H       5.049022     -0.092424      0.274552
  H      -5.202187      0.019380     -0.087687
  H       1.663240      7.189027     -0.456238
  H      -1.366135     -7.280096     -0.140462
39
Coordinates from ORCA-job opt E -697.966917274476
  C       3.983291     -0.048837      0.192574
  C       2.767599      0.004672      0.156905
  C      -2.911690      0.002354     -0.004572
  C       1.340746      0.040979      0.114696
  C       0.624295      1.293243      0.114886
  C      -0.795274      1.212866      0.074922
  C      -1.478310     -0.005047      0.034384
  C      -0.760014     -1.239484      0.031374
  C       0.635742     -1.174136      0.072665
  H      -1.384508      2.129831      0.079889
  H       1.219147     -2.094575      0.072394
  C       1.301691      2.533058      0.157602
  H       2.392526      2.495483      0.228502
  C       0.645694      3.879726      0.154331
  H      -0.187130      3.898515     -0.574894
  H       0.165506      4.066299      1.139841
  C       1.616019      5.029674     -0.149784
  H       2.444517      5.004602      0.581725
  H       2.077151      4.858756     -1.139502
  C       0.945581      6.404619     -0.121881
  H       0.499400      6.613162      0.865996
  H       0.136423      6.472741     -0.869855
  C      -1.519227     -2.550233     -0.014125
  H      -2.219241     -2.574318      0.842731
  H      -2.175626     -2.538849     -0.904856
  C      -0.684698     -3.833500     -0.018934
  H       0.002998     -3.831262     -0.885455
  H      -0.045172     -3.869096      0.882916
  C      -1.548491     -5.099229     -0.067991
  H      -2.238081     -5.103345      0.797228
  H      -2.191557     -5.066836     -0.967653
  C      -0.725105     -6.389223     -0.072918
  H      -0.097266     -6.467764      0.831859
  H      -0.050927     -6.431565     -0.946313
  C      -4.127132      0.011696     -0.040015
  H       5.054035     -0.100525      0.228705
  H      -5.199264      0.023781     -0.073353
  H       1.667983      7.208292     -0.337473
  H      -1.371873     -7.280868     -0.107984
39
Coordinates from ORCA-job opt E -697.967010615599
  C       3.986349     -0.049862      0.120839
  C       2.770526      0.002570      0.092995
  C      -2.909549      0.002232     -0.016884
  C       1.343380      0.038363      0.062490
  C       0.628503      1.291242      0.058835
  C      -0.791541      1.211479      0.029291
  C      -1.475827     -0.005801      0.006000
  C      -0.758751     -1.241206      0.009752
  C       0.637140     -1.176317      0.037025
  H      -1.379147      2.129419      0.031554
  H       1.219711     -2.097242      0.041278
  C       1.305316      2.531851      0.093835
  H       2.396648      2.498636      0.156883
  C       0.640294      3.874951      0.084354
  H      -0.113170      3.921925     -0.727606
  H       0.055441      4.013169      1.019024
  C       1.625402      5.042064     -0.065362
  H       2.370871      4.989423      0.749771
  H       2.192551      4.915953     -1.005832
  C       0.942405      6.410669     -0.053384
  H       0.390826      6.575457      0.888594
  H       0.216998      6.504993     -0.880349
  C      -1.519439     -2.551450     -0.011559
  H      -2.210914     -2.563707      0.852327
  H      -2.184705     -2.550966     -0.895690
  C      -0.686082     -3.835436     -0.007855
  H      -0.007950     -3.845877     -0.881693
  H      -0.036818     -3.859221      0.887317
  C      -1.551338     -5.100866     -0.030153
  H      -2.231490     -5.092436      0.842367
  H      -2.204079     -5.080234     -0.923063
  C      -0.729021     -6.391483     -0.026253
  H      -0.091342     -6.458052      0.872496
  H      -0.064573     -6.446487     -0.906247
  C      -4.125199      0.011487     -0.038499
  H       5.057147     -0.102059      0.152025
  H      -5.197528      0.024898     -0.060416
  H       1.675373      7.226523     -0.157819
  H      -1.376655     -7.282945     -0.041823
39
Coordinates from ORCA-job opt E -697.967033971967
  C       3.992899     -0.054273      0.053794
  C       2.776981     -0.001606      0.034977
  C      -2.903664      0.006106     -0.026455
  C       1.349641      0.035297      0.017522
  C       0.637277      1.289387      0.009972
  C      -0.783248      1.211777     -0.009416
  C      -1.469796     -0.004081     -0.015637
  C      -0.754953     -1.241023     -0.005691
  C       0.641091     -1.178146      0.008464
  H      -1.368350      2.131349     -0.012289
  H       1.222040     -2.100078      0.015857
  C       1.314018      2.530166      0.032450
  H       2.406029      2.500833      0.081431
  C       0.640445      3.869649      0.016556
  H      -0.029636      3.946851     -0.865231
  H      -0.038452      3.963200      0.890312
  C       1.623488      5.047199      0.014868
  H       2.281830      4.965487      0.900046
  H       2.285942      4.961906     -0.866293
  C       0.929802      6.410105      0.009135
  H       0.282883      6.534775      0.895089
  H       0.291702      6.532040     -0.883673
  C      -1.518181     -2.549756     -0.006499
  H      -2.202024     -2.551341      0.863454
  H      -2.191336     -2.557471     -0.884592
  C      -0.687270     -3.835268      0.003684
  H      -0.017750     -3.857064     -0.876489
  H      -0.029387     -3.850201      0.892703
  C      -1.555085     -5.099102      0.003899
  H      -2.226716     -5.079556      0.882758
  H      -2.216442     -5.087133     -0.882770
  C      -0.735176     -6.391171      0.014245
  H      -0.088762     -6.448874      0.907317
  H      -0.079593     -6.457373     -0.871538
  C      -4.119379      0.016561     -0.037609
  H       5.063744     -0.108099      0.078865
  H      -5.191779      0.032419     -0.051025
  H       1.661414      7.233664      0.011214
  H      -1.384482     -7.281497      0.015159
39
Coordinates from ORCA-job opt E -697.967055877329
  C       3.991427     -0.052286      0.058713
  C       2.775396     -0.000254      0.040676
  C      -2.905393      0.004456     -0.025260
  C       1.347998      0.035998      0.024088
  C       0.634967      1.289915      0.016440
  C      -0.785696      1.211330     -0.003195
  C      -1.471523     -0.004797     -0.009834
  C      -0.755996     -1.241552      0.000276
  C       0.640010     -1.177832      0.015512
  H      -1.371167      2.130730     -0.009534
  H       1.221620     -2.099413      0.022144
  C       1.311654      2.530520      0.032606
  H       2.404286      2.501160      0.065185
  C       0.640704      3.871047      0.019468
  H      -0.033872      3.949002     -0.858390
  H      -0.032403      3.966870      0.897348
  C       1.625403      5.047135      0.010081
  H       2.288344      4.966518      0.891518
  H       2.282605      4.959432     -0.874805
  C       0.933174      6.410911      0.005958
  H       0.291825      6.538075      0.895582
  H       0.289903      6.531685     -0.883175
  C      -1.518651     -2.550567     -0.003912
  H      -2.203718     -2.554138      0.865140
  H      -2.190725     -2.556933     -0.882915
  C      -0.687180     -3.835760      0.004697
  H      -0.016579     -3.855376     -0.874762
  H      -0.030312     -3.852251      0.894501
  C      -1.554480     -5.099971      0.000994
  H      -2.227103     -5.082740      0.879193
  H      -2.214916     -5.086174     -0.886418
  C      -0.734079     -6.391763      0.009171
  H      -0.088584     -6.451337      0.902852
  H      -0.077474     -6.455612     -0.876090
  C      -4.121140      0.014194     -0.040267
  H       5.062376     -0.105468      0.082782
  H      -5.193554      0.029406     -0.056970
  H       1.665701      7.233869      0.001891
  H      -1.383084     -7.282374      0.007275
39
Coordinates from ORCA-job opt E -697.967066201897
  C       3.991522     -0.051863      0.061094
  C       2.775461     -0.000243      0.043476
  C      -2.905448      0.003738     -0.022314
  C       1.348100      0.035871      0.027424
  C       0.634963      1.290023      0.018020
  C      -0.786030      1.210902      0.001416
  C      -1.471577     -0.005078     -0.004457
  C      -0.755868     -1.241993      0.005882
  C       0.640094     -1.177968      0.021198
  H      -1.371233      2.130566     -0.007877
  H       1.221976     -2.099384      0.028275
  C       1.311298      2.530517      0.024744
  H       2.404462      2.502526      0.038393
  C       0.641557      3.871528      0.014293
  H      -0.028097      3.953755     -0.866895
  H      -0.035326      3.964487      0.889318
  C       1.626012      5.047589      0.012513
  H       2.283907      4.966513      0.897396
  H       2.287826      4.961544     -0.869025
  C       0.932900      6.410990      0.006762
  H       0.287544      6.536867      0.893580
  H       0.293726      6.532261     -0.885162
  C      -1.518595     -2.550858     -0.000253
  H      -2.204359     -2.555584      0.868258
  H      -2.190135     -2.555991     -0.879667
  C      -0.687276     -3.836168      0.006781
  H      -0.016151     -3.854232     -0.872315
  H      -0.030942     -3.854290      0.896930
  C      -1.554771     -5.100228     -0.000146
  H      -2.227867     -5.084793      0.877711
  H      -2.214748     -5.084296     -0.887868
  C      -0.734671     -6.392205      0.005506
  H      -0.089701     -6.454007      0.899408
  H      -0.077569     -6.454146     -0.879516
  C      -4.121162      0.013401     -0.039243
  H       5.062508     -0.104564      0.084202
  H      -5.193547      0.028556     -0.057428
  H       1.664831      7.234589      0.006972
  H      -1.383851     -7.282673      0.001177
39
Coordinates from ORCA-job opt E -697.967067701195
  C       3.991589     -0.051745      0.061402
  C       2.775547     -0.000370      0.043703
  C      -2.905324      0.003611     -0.020670
  C       1.348227      0.035664      0.027408
  C       0.635190      1.289890      0.017363
  C      -0.785891      1.210694      0.001781
  C      -1.471445     -0.005168     -0.003647
  C      -0.755768     -1.242173      0.006493
  C       0.640143     -1.178119      0.021605
  H      -1.370806      2.130524     -0.007197
  H       1.222057     -2.099500      0.029203
  C       1.311426      2.530424      0.022068
  H       2.404646      2.503248      0.033549
  C       0.641740      3.871548      0.011293
  H      -0.024031      3.955554     -0.872738
  H      -0.038574      3.963104      0.883659
  C       1.626087      5.047704      0.014918
  H       2.279940      4.966546      0.902765
  H       2.291864      4.962331     -0.863674
  C       0.932554      6.410894      0.006811
  H       0.283600      6.536261      0.891046
  H       0.297004      6.532291     -0.887659
  C      -1.518572     -2.550940      0.000450
  H      -2.204281     -2.555741      0.868977
  H      -2.190202     -2.555919     -0.878875
  C      -0.687331     -3.836298      0.007124
  H      -0.016261     -3.854102     -0.871997
  H      -0.030963     -3.854710      0.897210
  C      -1.554909     -5.100285     -0.000236
  H      -2.227939     -5.085161      0.877650
  H      -2.214937     -5.083894     -0.887883
  C      -0.734938     -6.392328      0.004779
  H      -0.089980     -6.454644      0.898626
  H      -0.077855     -6.453890     -0.880257
  C      -4.121015      0.013550     -0.036811
  H       5.062585     -0.104043      0.084048
  H      -5.193394      0.028827     -0.054090
  H       1.664157      7.234743      0.010364
  H      -1.384178     -7.282723      0.000005
39
Coordinates from ORCA-job opt E -697.967069057681
  C       3.991511     -0.051354      0.061761
  C       2.775483     -0.000375      0.043916
  C      -2.905329      0.003409     -0.019251
  C       1.348208      0.035463      0.027039
  C       0.635275      1.289740      0.016328
  C      -0.785894      1.210426      0.001471
  C      -1.471436     -0.005307     -0.003499
  C      -0.755768     -1.242411      0.006457
  C       0.640064     -1.178273      0.021464
  H      -1.370423      2.130486     -0.006719
  H       1.222046     -2.099597      0.029704
  C       1.311352      2.530280      0.019986
  H       2.404598      2.504162      0.031406
  C       0.641667      3.871557      0.008845
  H      -0.020572      3.957390     -0.877730
  H      -0.041612      3.961980      0.878868
  C       1.626221      5.047629      0.017286
  H       2.276228      4.966554      0.907965
  H       2.295774      4.962474     -0.858453
  C       0.932591      6.410773      0.006552
  H       0.280469      6.536126      0.888444
  H       0.300292      6.532105     -0.890213
  C      -1.518605     -2.551097      0.000737
  H      -2.204257     -2.555865      0.869274
  H      -2.190332     -2.556088     -0.878503
  C      -0.687377     -3.836461      0.007269
  H      -0.016292     -3.854077     -0.871818
  H      -0.031038     -3.855000      0.897344
  C      -1.554960     -5.100430     -0.000339
  H      -2.228001     -5.085489      0.877518
  H      -2.214964     -5.083782     -0.887967
  C      -0.735037     -6.392483      0.004372
  H      -0.090218     -6.455138      0.898268
  H      -0.077834     -6.453758     -0.880570
  C      -4.120999      0.013860     -0.034176
  H       5.062546     -0.102884      0.083466
  H      -5.193380      0.029268     -0.049948
  H       1.664045      7.234693      0.012825
  H      -1.384275     -7.282850     -0.000814
