39
Coordinates from ORCA-job opt_cc-pVDZ E -697.967712011778
  C       3.991788     -0.049240      0.058108
  C       2.775740      0.000818      0.040924
  C      -2.904926      0.001969     -0.021065
  C       1.348501      0.035970      0.024651
  C       0.635243      1.290110      0.014122
  C      -0.786025      1.210124     -0.000914
  C      -1.471080     -0.005896     -0.005830
  C      -0.755051     -1.242724      0.004473
  C       0.640732     -1.178015      0.019328
  H      -1.371296      2.129824     -0.008865
  H       1.223342     -2.098995      0.027465
  C       1.310813      2.530858      0.018832
  H       2.403663      2.505003      0.030818
  C       0.641084      3.872285      0.008661
  H      -0.020408      3.959192     -0.878174
  H      -0.042671      3.961660      0.878176
  C       1.626345      5.048246      0.019383
  H       2.275422      4.965813      0.910219
  H       2.296697      4.963937     -0.855394
  C       0.933467      6.412041      0.009601
  H       0.280768      6.536675      0.890987
  H       0.302265      6.534793     -0.887575
  C      -1.517430     -2.551443     -0.000599
  H      -2.203439     -2.555198      0.867109
  H      -2.188523     -2.557024     -0.879837
  C      -0.686654     -3.837261      0.007762
  H      -0.015119     -3.856287     -0.870392
  H      -0.031197     -3.855470      0.897992
  C      -1.555555     -5.100742      0.000739
  H      -2.229365     -5.083796      0.877444
  H      -2.214538     -5.084219     -0.887176
  C      -0.737137     -6.394159      0.007906
  H      -0.093627     -6.456407      0.902512
  H      -0.079125     -6.457034     -0.876030
  C      -4.120621      0.011732     -0.035488
  H       5.062776     -0.099657      0.078803
  H      -5.192882      0.026348     -0.050615
  H       1.665288      7.235733      0.017560
  H      -1.387506     -7.283908      0.002941
39
Coordinates from ORCA-job opt_cc-pVDZ E -697.967712589011
  C       3.991784     -0.048435      0.056346
  C       2.775712      0.001154      0.039648
  C      -2.904921      0.001529     -0.021694
  C       1.348481      0.036063      0.023781
  C       0.635152      1.290201      0.013521
  C      -0.786150      1.210014     -0.001501
  C      -1.471087     -0.006069     -0.006317
  C      -0.754959     -1.242857      0.003885
  C       0.640797     -1.177975      0.018518
  H      -1.371712      2.129541     -0.009530
  H       1.223674     -2.098813      0.026483
  C       1.310504      2.530996      0.018452
  H       2.403361      2.505271      0.030469
  C       0.640754      3.872473      0.008531
  H      -0.020275      3.959854     -0.878575
  H      -0.043331      3.961474      0.877793
  C       1.626405      5.048189      0.020362
  H       2.274910      4.965134      0.911543
  H       2.297355      4.964108     -0.853963
  C       0.933927      6.412245      0.010752
  H       0.280780      6.536667      0.891827
  H       0.303418      6.535595     -0.886820
  C      -1.517089     -2.551625     -0.001122
  H      -2.203424     -2.555125      0.866315
  H      -2.187900     -2.557491     -0.880574
  C      -0.686255     -3.837418      0.007984
  H      -0.014409     -3.856931     -0.869895
  H      -0.031140     -3.855437      0.898451
  C      -1.555636     -5.100694      0.001104
  H      -2.229939     -5.082944      0.877396
  H      -2.214140     -5.084251     -0.887149
  C      -0.737690     -6.394490      0.009386
  H      -0.094861     -6.456485      0.904485
  H      -0.079170     -6.457885     -0.874119
  C      -4.120618      0.011094     -0.036179
  H       5.062828     -0.098171      0.076211
  H      -5.192896      0.025363     -0.051172
  H       1.665950      7.235757      0.019557
  H      -1.388424     -7.283966      0.004373
