48
Coordinates from ORCA-job opt E -890.698188482783
  C      -2.831396      0.021105     -0.012642
  C       2.816857     -0.008329     -0.008943
  C      -1.419538      0.001261     -0.011722
  C      -0.709937     -1.250915     -0.014244
  C       0.675807     -1.194488     -0.013199
  C       1.396890      0.027161     -0.009776
  C       0.693139      1.270435     -0.007169
  C      -0.693327      1.232572     -0.008242
  H       1.253281     -2.119533     -0.015037
  H      -1.270220      2.156410     -0.006421
  C      -1.493370     -2.545554     -0.017776
  H      -2.168844     -2.534335     -0.894719
  H      -2.170258     -2.538203      0.858122
  C      -0.684914     -3.845409     -0.019953
  H      -0.021185     -3.871791     -0.904310
  H      -0.022639     -3.875623      0.865366
  C      -1.573350     -5.094802     -0.023316
  H      -2.240313     -5.069926      0.858937
  H      -2.238686     -5.066329     -0.906684
  C      -0.775094     -6.400390     -0.025238
  H      -0.126178     -6.475107      0.864749
  H      -0.124397     -6.471391     -0.914234
  C       1.475709      2.570201     -0.003587
  H       2.151562      2.561099      0.871942
  H       2.152587      2.565252     -0.878360
  C       0.664476      3.868006     -0.001046
  H       0.001883      3.898365     -0.886151
  H       0.000628      3.894170      0.883255
  C       1.551315      5.118577      0.002456
  H       2.216719      5.090697      0.885857
  H       2.218237      5.094567     -0.879915
  C       0.751789      6.423401      0.004629
  H       0.100998      6.493490      0.893612
  H       0.102721      6.497515     -0.885281
  C       4.040740     -0.049685     -0.010049
  H      -1.439320     -7.279640     -0.027752
  H       1.414954      7.303479      0.007274
  C       5.466067     -0.097029     -0.009572
  C       6.145809     -1.335591     -0.018815
  C       7.539362     -1.375968     -0.018263
  C       8.282105     -0.189619     -0.008565
  C       7.619225      1.043198      0.000607
  C       6.226076      1.094106      0.000117
  H       9.374307     -0.226006     -0.008129
  H       8.193231      1.972960      0.008310
  H       5.565057     -2.259870     -0.026531
  H       5.707313      2.054702      0.007413
  H       8.051398     -2.341332     -0.025579
48
Coordinates from ORCA-job opt E -890.698191032005
  C      -2.832044      0.020754     -0.012615
  C       2.816238     -0.006121     -0.008876
  C      -1.420144      0.001877     -0.011616
  C      -0.709844     -1.249802     -0.014282
  C       0.675817     -1.192463     -0.013108
  C       1.396291      0.029471     -0.009564
  C       0.691979      1.272423     -0.006839
  C      -0.694543      1.233614     -0.007938
  H       1.254144     -2.117034     -0.015056
  H      -1.272232      2.157082     -0.006006
  C      -1.491730     -2.545192     -0.018200
  H      -2.166928     -2.534503     -0.894818
  H      -2.168620     -2.538740      0.857151
  C      -0.681732     -3.844230     -0.020543
  H      -0.017966     -3.869726     -0.904399
  H      -0.019762     -3.873999      0.864528
  C      -1.569061     -5.094786     -0.024441
  H      -2.236090     -5.070608      0.857279
  H      -2.234130     -5.066512     -0.907521
  C      -0.769590     -6.400034     -0.026591
  H      -0.120957     -6.474279      0.863396
  H      -0.118788     -6.470013     -0.915341
  C       1.473407      2.572698     -0.002953
  H       2.148996      2.563787      0.872312
  H       2.150218      2.568250     -0.877308
  C       0.661610      3.870340     -0.000236
  H      -0.000683      3.900830     -0.885065
  H      -0.002173      3.896248      0.883619
  C       1.548552      5.121287      0.003714
  H       2.213732      5.092961      0.886782
  H       2.215461      5.097294     -0.878175
  C       0.749195      6.426634      0.006149
  H       0.098450      6.496426      0.894931
  H       0.100432      6.500964     -0.883712
  C       4.040043     -0.048681     -0.010081
  H      -1.433054     -7.280049     -0.029520
  H       1.412548      7.306769      0.009143
  C       5.465296     -0.098616     -0.009758
  C       6.142422     -1.338742     -0.011835
  C       7.535953     -1.382216     -0.011443
  C       8.281149     -0.197328     -0.009021
  C       7.620944      1.037034     -0.006994
  C       6.227832      1.091002     -0.007361
  H       9.372953     -0.235959     -0.008716
  H       8.197018      1.965557     -0.005089
  H       5.559621     -2.261780     -0.013734
  H       5.711199      2.052655     -0.005758
  H       8.045848     -2.348678     -0.013066
48
Coordinates from ORCA-job opt E -890.698191020662
  C      -2.832372      0.020293     -0.012674
  C       2.815948     -0.003360     -0.008875
  C      -1.420433      0.002453     -0.011651
  C      -0.709375     -1.248719     -0.014317
  C       0.676247     -1.190347     -0.013098
  C       1.395990      0.032013     -0.009547
  C       0.690981      1.274503     -0.006793
  C      -0.695552      1.234643     -0.007923
  H       1.255523     -2.114320     -0.015016
  H      -1.274064      2.157630     -0.005970
  C      -1.489895     -2.544872     -0.018304
  H      -2.165019     -2.534890     -0.894888
  H      -2.166965     -2.539083      0.856814
  C      -0.678575     -3.843149     -0.020503
  H      -0.014665     -3.868142     -0.904151
  H      -0.016787     -3.872413      0.864608
  C      -1.565109     -5.094476     -0.024598
  H      -2.232311     -5.070651      0.856894
  H      -2.230018     -5.066520     -0.907703
  C      -0.764607     -6.399272     -0.026630
  H      -0.116223     -6.472896      0.863534
  H      -0.113640     -6.468533     -0.915256
  C       1.471273      2.575323     -0.002841
  H       2.146769      2.566888      0.872422
  H       2.148153      2.571347     -0.877069
  C       0.658643      3.872512     -0.000192
  H      -0.003508      3.902839     -0.885023
  H      -0.005190      3.898229      0.883519
  C       1.545480      5.123771      0.003914
  H       2.210563      5.095343      0.886947
  H       2.212467      5.099765     -0.877811
  C       0.745911      6.429167      0.006343
  H       0.095138      6.498653      0.895068
  H       0.097365      6.503336     -0.883633
  C       4.039703     -0.047094     -0.010051
  H      -1.427402     -7.279815     -0.029757
  H       1.409174      7.309394      0.009496
  C       5.464853     -0.099872     -0.009745
  C       6.139075     -1.341626     -0.011166
  C       7.532527     -1.388475     -0.010865
  C       8.280425     -0.205272     -0.009185
  C       7.623150      1.030678     -0.007808
  C       6.230136      1.087990     -0.008102
  H       9.372096     -0.246369     -0.008970
  H       8.201473      1.957801     -0.006530
  H       5.554032     -2.263250     -0.012463
  H       5.715792      2.050851     -0.007084
  H       8.040096     -2.356142     -0.011943
