48
Coordinates from ORCA-job opt E -890.750968114028
  C      -2.831396      0.021105     -0.012642
  C       2.816857     -0.008329     -0.008943
  C      -1.419538      0.001261     -0.011722
  C      -0.709937     -1.250915     -0.014244
  C       0.675807     -1.194488     -0.013199
  C       1.396890      0.027161     -0.009776
  C       0.693139      1.270435     -0.007169
  C      -0.693327      1.232572     -0.008242
  H       1.253281     -2.119533     -0.015037
  H      -1.270220      2.156410     -0.006421
  C      -1.493370     -2.545554     -0.017776
  H      -2.168844     -2.534335     -0.894719
  H      -2.170258     -2.538203      0.858122
  C      -0.684914     -3.845409     -0.019953
  H      -0.021185     -3.871791     -0.904310
  H      -0.022639     -3.875623      0.865366
  C      -1.573350     -5.094802     -0.023316
  H      -2.240313     -5.069926      0.858937
  H      -2.238686     -5.066329     -0.906684
  C      -0.775094     -6.400390     -0.025238
  H      -0.126178     -6.475107      0.864749
  H      -0.124397     -6.471391     -0.914234
  C       1.475709      2.570201     -0.003587
  H       2.151562      2.561099      0.871942
  H       2.152587      2.565252     -0.878360
  C       0.664476      3.868006     -0.001046
  H       0.001883      3.898365     -0.886151
  H       0.000628      3.894170      0.883255
  C       1.551315      5.118577      0.002456
  H       2.216719      5.090697      0.885857
  H       2.218237      5.094567     -0.879915
  C       0.751789      6.423401      0.004629
  H       0.100998      6.493490      0.893612
  H       0.102721      6.497515     -0.885281
  C       4.040740     -0.049685     -0.010049
  H      -1.439320     -7.279640     -0.027752
  H       1.414954      7.303479      0.007274
  C       5.466067     -0.097029     -0.009572
  C       6.145809     -1.335591     -0.018815
  C       7.539362     -1.375968     -0.018263
  C       8.282105     -0.189619     -0.008565
  C       7.619225      1.043198      0.000607
  C       6.226076      1.094106      0.000117
  H       9.374307     -0.226006     -0.008129
  H       8.193231      1.972960      0.008310
  H       5.565057     -2.259870     -0.026531
  H       5.707313      2.054702      0.007413
  H       8.051398     -2.341332     -0.025579
48
Coordinates from ORCA-job opt E -890.752273507287
  C      -2.797097      0.017802     -0.012575
  C       2.821633     -0.004022     -0.008862
  C      -1.411269     -0.002927     -0.011641
  C      -0.697310     -1.258103     -0.014196
  C       0.684774     -1.197507     -0.013042
  C       1.403354      0.028480     -0.009599
  C       0.695749      1.273034     -0.006993
  C      -0.687769      1.236009     -0.008100
  H       1.264837     -2.120411     -0.014891
  H      -1.264023      2.161323     -0.006266
  C      -1.488283     -2.551011     -0.017980
  H      -2.163815     -2.537991     -0.895590
  H      -2.165508     -2.542045      0.858377
  C      -0.688208     -3.855674     -0.020210
  H      -0.025114     -3.885795     -0.904159
  H      -0.026895     -3.889876      0.864927
  C      -1.585524     -5.099116     -0.023959
  H      -2.252233     -5.069699      0.857730
  H      -2.250284     -5.065798     -0.906983
  C      -0.795701     -6.410088     -0.025994
  H      -0.147704     -6.489176      0.864035
  H      -0.145552     -6.485111     -0.914806
  C       1.475288      2.573479     -0.003244
  H       2.150721      2.564549      0.871986
  H       2.151948      2.568821     -0.877560
  C       0.662026      3.870262     -0.000677
  H      -0.000180      3.900076     -0.885616
  H      -0.001665      3.895696      0.883283
  C       1.547893      5.121913      0.003127
  H       2.213039      5.094238      0.886229
  H       2.214773      5.098361     -0.878784
  C       0.747218      6.426398      0.005401
  H       0.096465      6.495708      0.894174
  H       0.098444      6.500030     -0.884469
  C       4.046158     -0.044283     -0.010028
  H      -1.465874     -7.284837     -0.028813
  H       1.409798      7.307027      0.008288
  C       5.471020     -0.091490     -0.009659
  C       6.150474     -1.330513     -0.015251
  C       7.543973     -1.371208     -0.014798
  C       8.286817     -0.184766     -0.008830
  C       7.624311      1.048433     -0.003302
  C       6.231214      1.099802     -0.003701
  H       9.378665     -0.221293     -0.008487
  H       8.198621      1.977998      0.001388
  H       5.569512     -2.254697     -0.019923
  H       5.712794      2.060484      0.000638
  H       8.055763     -2.336620     -0.019169
48
Coordinates from ORCA-job opt E -890.752802143078
  C      -2.769173      0.018732     -0.012391
  C       2.818625      0.001668     -0.008856
  C      -1.413714     -0.007483     -0.011586
  C      -0.689120     -1.267948     -0.014227
  C       0.687212     -1.201041     -0.013050
  C       1.403849      0.030409     -0.009558
  C       0.690451      1.276550     -0.006850
  C      -0.689028      1.242722     -0.007938
  H       1.271301     -2.121896     -0.014905
  H      -1.263069      2.168353     -0.006037
  C      -1.485491     -2.557051     -0.018150
  H      -2.160191     -2.543160     -0.896282
  H      -2.162210     -2.547241      0.858485
  C      -0.687055     -3.862792     -0.020281
  H      -0.024044     -3.893504     -0.904262
  H      -0.026260     -3.897701      0.865206
  C      -1.587319     -5.104350     -0.024384
  H      -2.254108     -5.073401      0.857060
  H      -2.251715     -5.069315     -0.907484
  C      -0.799631     -6.416830     -0.026379
  H      -0.152290     -6.497074      0.863938
  H      -0.149606     -6.492749     -0.915117
  C       1.470308      2.576487     -0.003019
  H       2.145743      2.565736      0.872142
  H       2.147134      2.570038     -0.877147
  C       0.659630      3.874930     -0.000479
  H      -0.002064      3.906771     -0.885586
  H      -0.003746      3.902321      0.883514
  C       1.549579      5.124073      0.003523
  H       2.214478      5.093970      0.886609
  H       2.216388      5.098243     -0.878255
  C       0.752750      6.431119      0.005849
  H       0.102290      6.502126      0.894627
  H       0.104531      6.506667     -0.884194
  C       4.044331     -0.038157     -0.009994
  H      -1.471628     -7.290201     -0.029519
  H       1.418193      7.309588      0.008933
  C       5.468163     -0.086892     -0.009666
  C       6.145825     -1.327407     -0.013189
  C       7.539157     -1.370275     -0.012845
  C       8.283756     -0.184770     -0.009037
  C       7.623305      1.049691     -0.005567
  C       6.230389      1.103577     -0.005889
  H       9.375527     -0.222898     -0.008789
  H       8.199308      1.978206     -0.002607
  H       5.563401     -2.250660     -0.016145
  H       5.713675      2.065151     -0.003227
  H       8.049433     -2.336471     -0.015570
48
Coordinates from ORCA-job opt E -890.752846006287
  C      -2.775697      0.021932     -0.012268
  C       2.818363      0.002793     -0.008866
  C      -1.415730     -0.007350     -0.011481
  C      -0.689123     -1.267975     -0.014247
  C       0.686934     -1.200088     -0.013097
  C       1.404118      0.031362     -0.009529
  C       0.689586      1.277015     -0.006743
  C      -0.689535      1.243403     -0.007788
  H       1.271415     -2.120588     -0.015043
  H      -1.264141      2.168677     -0.005817
  C      -1.485100     -2.556801     -0.018255
  H      -2.159719     -2.542656     -0.896335
  H      -2.161775     -2.546828      0.858299
  C      -0.685914     -3.862332     -0.020433
  H      -0.022853     -3.892622     -0.904378
  H      -0.025126     -3.896916      0.865059
  C      -1.585282     -5.104530     -0.024633
  H      -2.252129     -5.074036      0.856828
  H      -2.249676     -5.069850     -0.907792
  C      -0.796914     -6.416572     -0.026671
  H      -0.149574     -6.496481      0.863694
  H      -0.146802     -6.492037     -0.915402
  C       1.469739      2.577051     -0.002860
  H       2.145173      2.566212      0.872330
  H       2.146567      2.570574     -0.877015
  C       0.659115      3.875425     -0.000281
  H      -0.002577      3.907302     -0.885442
  H      -0.004265      3.902799      0.883764
  C       1.548992      5.124592      0.003760
  H       2.213885      5.094483      0.886888
  H       2.215796      5.098816     -0.878062
  C       0.752115      6.431556      0.006126
  H       0.101641      6.502483      0.894918
  H       0.103906      6.507098     -0.883940
  C       4.044173     -0.037589     -0.010016
  H      -1.468399     -7.290339     -0.029903
  H       1.417526      7.310045      0.009256
  C       5.467792     -0.087344     -0.009722
  C       6.144592     -1.328421     -0.011686
  C       7.537857     -1.372368     -0.011361
  C       8.283435     -0.187471     -0.009112
  C       7.623935      1.047495     -0.007187
  C       6.231094      1.102520     -0.007496
  H       9.375188     -0.226454     -0.008871
  H       8.200706      1.975542     -0.005433
  H       5.561427     -2.251209     -0.013432
  H       5.715158      2.064519     -0.006014
  H       8.047377     -2.338974     -0.012881
48
Coordinates from ORCA-job opt E -890.752862835064
  C      -2.778228      0.026526     -0.012179
  C       2.818483      0.005047     -0.008893
  C      -1.417455     -0.008129     -0.011456
  C      -0.687741     -1.268521     -0.014268
  C       0.687545     -1.198875     -0.013138
  C       1.405103      0.032927     -0.009552
  C       0.688317      1.277739     -0.006725
  C      -0.690117      1.243986     -0.007738
  H       1.273005     -2.118844     -0.015116
  H      -1.265841      2.168472     -0.005723
  C      -1.483991     -2.556679     -0.018304
  H      -2.158383     -2.542095     -0.896462
  H      -2.160593     -2.546207      0.858212
  C      -0.684461     -3.862191     -0.020363
  H      -0.021310     -3.892214     -0.904263
  H      -0.023763     -3.896451      0.865222
  C      -1.583303     -5.104773     -0.024621
  H      -2.250258     -5.074455      0.856803
  H      -2.247611     -5.070321     -0.907891
  C      -0.794572     -6.416581     -0.026532
  H      -0.147355     -6.496236      0.863958
  H      -0.144332     -6.491809     -0.915201
  C       1.468395      2.578231     -0.002835
  H       2.143795      2.567409      0.872406
  H       2.145247      2.571736     -0.876994
  C       0.657648      3.876438     -0.000316
  H      -0.003991      3.908259     -0.885549
  H      -0.005731      3.903812      0.883761
  C       1.547353      5.125750      0.003714
  H       2.212211      5.095723      0.886898
  H       2.214168      5.100012     -0.878127
  C       0.750297      6.432579      0.006023
  H       0.099782      6.503399      0.894805
  H       0.102142      6.507997     -0.884105
  C       4.044450     -0.036152     -0.009996
  H      -1.465787     -7.290554     -0.029849
  H       1.415607      7.311142      0.009179
  C       5.467728     -0.087620     -0.009701
  C       6.142996     -1.329678     -0.012083
  C       7.536147     -1.375511     -0.011782
  C       8.283394     -0.191647     -0.009147
  C       7.625556      1.044212     -0.006810
  C       6.232839      1.101208     -0.007091
  H       9.375105     -0.232103     -0.008930
  H       8.203651      1.971436     -0.004760
  H       5.558534     -2.251645     -0.014141
  H       5.718244      2.063933     -0.005291
  H       8.044349     -2.342817     -0.013624
48
Coordinates from ORCA-job opt E -890.752869857574
  C      -2.778193      0.031256     -0.012057
  C       2.819168      0.006941     -0.008941
  C      -1.417759     -0.008864     -0.011402
  C      -0.686338     -1.268435     -0.014283
  C       0.688556     -1.197684     -0.013188
  C       1.406211      0.034302     -0.009574
  C       0.687785      1.278367     -0.006700
  C      -0.690292      1.244025     -0.007679
  H       1.274694     -2.117331     -0.015209
  H      -1.267212      2.167765     -0.005628
  C      -1.482827     -2.556341     -0.018359
  H      -2.157043     -2.541394     -0.896630
  H      -2.159379     -2.545479      0.858172
  C      -0.683327     -3.861895     -0.020343
  H      -0.020110     -3.891762     -0.904213
  H      -0.022688     -3.895965      0.865309
  C      -1.581947     -5.104627     -0.024646
  H      -2.248971     -5.074376      0.856743
  H      -2.246190     -5.070269     -0.907985
  C      -0.793074     -6.416341     -0.026475
  H      -0.145950     -6.495895      0.864094
  H      -0.142739     -6.491462     -0.915088
  C       1.467342      2.579447     -0.002791
  H       2.142678      2.568854      0.872502
  H       2.144175      2.573171     -0.876966
  C       0.656010      3.877240     -0.000305
  H      -0.005623      3.908747     -0.885561
  H      -0.007387      3.904335      0.883774
  C       1.545070      5.127034      0.003719
  H       2.209924      5.097346      0.886926
  H       2.211901      5.101613     -0.878128
  C       0.747340      6.433444      0.005999
  H       0.096764      6.503915      0.894767
  H       0.099185      6.508515     -0.884161
  C       4.045173     -0.035108     -0.010007
  H      -1.464179     -7.290395     -0.029865
  H       1.412202      7.312346      0.009178
  C       5.468250     -0.088168     -0.009727
  C       6.142058     -1.331099     -0.012131
  C       7.535115     -1.378682     -0.011831
  C       8.283887     -0.195766     -0.009171
  C       7.627576      1.040912     -0.006803
  C       6.234961      1.099688     -0.007082
  H       9.375549     -0.237581     -0.008951
  H       8.206865      1.967393     -0.004724
  H       5.556392     -2.252304     -0.014209
  H       5.721575      2.063062     -0.005247
  H       8.042098     -2.346630     -0.013695
48
Coordinates from ORCA-job opt E -890.752875877310
  C      -2.777114      0.037911     -0.011934
  C       2.820062      0.008905     -0.009009
  C      -1.417333     -0.009625     -0.011380
  C      -0.684951     -1.267912     -0.014322
  C       0.689794     -1.196390     -0.013263
  C       1.407258      0.035769     -0.009619
  C       0.687536      1.279156     -0.006690
  C      -0.690367      1.243935     -0.007644
  H       1.276464     -2.115779     -0.015327
  H      -1.268571      2.166919     -0.005555
  C      -1.481483     -2.555897     -0.018445
  H      -2.155492     -2.540673     -0.896882
  H      -2.158017     -2.544700      0.858108
  C      -0.682046     -3.861419     -0.020304
  H      -0.018729     -3.891122     -0.904120
  H      -0.021462     -3.895244      0.865413
  C      -1.580412     -5.104308     -0.024639
  H      -2.247520     -5.074144      0.856692
  H      -2.244574     -5.070109     -0.908048
  C      -0.791306     -6.415878     -0.026340
  H      -0.144279     -6.495286      0.864313
  H      -0.140844     -6.490888     -0.914869
  C       1.466277      2.580908     -0.002752
  H       2.141507      2.570678      0.872622
  H       2.143075      2.574989     -0.876950
  C       0.654049      3.878108     -0.000307
  H      -0.007598      3.909111     -0.885567
  H      -0.009394      3.904737      0.883749
  C       1.542147      5.128603      0.003711
  H       2.207003      5.099439      0.886933
  H       2.209007      5.103679     -0.878128
  C       0.743397      6.434391      0.005954
  H       0.092727      6.504350      0.894693
  H       0.095219      6.508948     -0.884231
  C       4.046033     -0.034220     -0.010000
  H      -1.462248     -7.290054     -0.029797
  H       1.407569      7.313815      0.009160
  C       5.468987     -0.089083     -0.009724
  C       6.141102     -1.332971     -0.012354
  C       7.534067     -1.382523     -0.012069
  C       8.284534     -0.200671     -0.009203
  C       7.629945      1.036923     -0.006617
  C       6.237430      1.097668     -0.006880
  H       9.376133     -0.244015     -0.008997
  H       8.210549      1.962581     -0.004380
  H       5.554080     -2.253315     -0.014594
  H       5.725380      2.061759     -0.004877
  H       8.039680     -2.351188     -0.014109
48
Coordinates from ORCA-job opt E -890.752879343666
  C      -2.775932      0.043457     -0.011808
  C       2.820430      0.009842     -0.009085
  C      -1.416608     -0.010078     -0.011341
  C      -0.684433     -1.267449     -0.014353
  C       0.690466     -1.195878     -0.013334
  C       1.407464      0.036429     -0.009662
  C       0.687563      1.279663     -0.006683
  C      -0.690414      1.243905     -0.007608
  H       1.277265     -2.115174     -0.015444
  H      -1.269112      2.166623     -0.005487
  C      -1.480761     -2.555733     -0.018518
  H      -2.154658     -2.540474     -0.897065
  H      -2.157312     -2.544472      0.858047
  C      -0.681292     -3.861135     -0.020303
  H      -0.017908     -3.890739     -0.904078
  H      -0.020711     -3.894804      0.865428
  C      -1.579472     -5.104137     -0.024643
  H      -2.246621     -5.074066      0.856655
  H      -2.243602     -5.070077     -0.908076
  C      -0.790135     -6.415571     -0.026276
  H      -0.143140     -6.494862      0.864408
  H      -0.139597     -6.490488     -0.914755
  C       1.465779      2.581705     -0.002725
  H       2.140942      2.571699      0.872697
  H       2.142546      2.576018     -0.876941
  C       0.652991      3.878551     -0.000289
  H      -0.008690      3.909226     -0.885531
  H      -0.010483      3.904869      0.883748
  C       1.540511      5.129454      0.003721
  H       2.205386      5.100611      0.886933
  H       2.207384      5.104841     -0.878111
  C       0.741140      6.434865      0.005958
  H       0.090419      6.504514      0.894681
  H       0.092928      6.509117     -0.884225
  C       4.046335     -0.033965     -0.010010
  H      -1.460925     -7.289863     -0.029762
  H       1.404884      7.314613      0.009173
  C       5.469308     -0.089754     -0.009743
  C       6.140512     -1.334118     -0.012364
  C       7.533442     -1.384677     -0.012078
  C       8.284757     -0.203362     -0.009213
  C       7.631057      1.034701     -0.006627
  C       6.238579      1.096431     -0.006891
  H       9.376321     -0.247493     -0.009004
  H       8.212314      1.959947     -0.004389
  H       5.552798     -2.254022     -0.014598
  H       5.727198      2.060881     -0.004887
  H       8.038358     -2.353704     -0.014114
48
Coordinates from ORCA-job opt E -890.752880805287
  C      -2.775358      0.046208     -0.011751
  C       2.820255      0.009685     -0.009139
  C      -1.416126     -0.010274     -0.011347
  C      -0.684648     -1.267420     -0.014386
  C       0.690490     -1.196208     -0.013389
  C       1.407047      0.036197     -0.009702
  C       0.687689      1.279681     -0.006696
  C      -0.690449      1.243926     -0.007610
  H       1.277162     -2.115524     -0.015523
  H      -1.268852      2.166837     -0.005472
  C      -1.480792     -2.555886     -0.018568
  H      -2.154671     -2.540740     -0.897146
  H      -2.157395     -2.544715      0.857974
  C      -0.681275     -3.861204     -0.020309
  H      -0.017862     -3.890851     -0.904058
  H      -0.020683     -3.894869      0.865412
  C      -1.579450     -5.104210     -0.024628
  H      -2.246605     -5.074150      0.856659
  H      -2.243576     -5.070198     -0.908059
  C      -0.790051     -6.415615     -0.026228
  H      -0.143052     -6.494872      0.864454
  H      -0.139497     -6.490536     -0.914694
  C       1.465882      2.581608     -0.002726
  H       2.141040      2.571608      0.872700
  H       2.142655      2.575943     -0.876938
  C       0.653075      3.878460     -0.000281
  H      -0.008622      3.909115     -0.885508
  H      -0.010403      3.904750      0.883750
  C       1.540606      5.129343      0.003729
  H       2.205493      5.100499      0.886927
  H       2.207479      5.104735     -0.878099
  C       0.741236      6.434757      0.005976
  H       0.090513      6.504407      0.894697
  H       0.093010      6.509016     -0.884195
  C       4.046121     -0.034213     -0.010003
  H      -1.460807     -7.289936     -0.029701
  H       1.404972      7.314510      0.009190
  C       5.469175     -0.089851     -0.009729
  C       6.140470     -1.334126     -0.012366
  C       7.533422     -1.384522     -0.012085
  C       8.284577     -0.203110     -0.009213
  C       7.630744      1.034879     -0.006618
  C       6.238242      1.096428     -0.006877
  H       9.376146     -0.247118     -0.009009
  H       8.211876      1.960203     -0.004379
  H       5.552872     -2.254102     -0.014605
  H       5.726741      2.060809     -0.004870
  H       8.038460     -2.353485     -0.014131
