37
Coordinates from ORCA-job BDE E -621.857377857788
  C       0.000000      0.000000      0.000000
  C       1.360405     -0.000000     -0.000000
  C       2.143447     -1.225691     -0.003231
  C       3.514442     -1.097446     -0.002646
  C       4.179214      0.163647      0.000800
  C       3.408849      1.376192      0.003995
  C       2.033384      1.283249      0.003493
  H       4.138777     -1.991612     -0.004936
  H       1.417162      2.181349      0.005784
  C       1.401484     -2.546101     -0.007148
  H       0.727296     -2.558977     -0.885525
  H       0.725261     -2.563003      0.869596
  C       2.254506     -3.817099     -0.009100
  H       2.918315     -3.819206     -0.893046
  H       2.916190     -3.823278      0.876425
  C       1.408713     -5.096325     -0.013124
  H       0.741148     -5.093960      0.868362
  H       0.743485     -5.089946     -0.896357
  C       2.251879     -6.373824     -0.014932
  H       2.901876     -6.426120      0.875559
  H       2.904718     -6.421700     -0.903590
  C       4.132317      2.709306      0.007705
  H       4.807569      2.727377      0.882929
  H       4.808482      2.731716     -0.866710
  C       3.266368      3.971293      0.010365
  H       2.603706      3.974419     -0.874666
  H       2.602633      3.970043      0.894593
  C       4.101200      5.257947      0.014082
  H       4.766973      5.256763      0.897083
  H       4.768257      5.261018     -0.867944
  C       3.248319      6.529046      0.016541
  H       2.595531      6.571648      0.905454
  H       2.597304      6.576297     -0.873438
  H       1.618002     -7.275240     -0.018185
  H       3.874958      7.435599      0.019538
  H       5.267945      0.226853      0.001109
  C      -1.360405      0.000000      0.000000
37
Coordinates from ORCA-job BDE E -621.866014276546
  C      -0.064268     -0.007067     -0.000140
  C       1.322284      0.003209     -0.000035
  C       2.103779     -1.219039     -0.003289
  C       3.487234     -1.091584     -0.002725
  C       4.133759      0.163174      0.000779
  C       3.382244      1.372347      0.003976
  C       1.998078      1.277134      0.003487
  H       4.111321     -1.981020     -0.005048
  H       1.380932      2.167556      0.005796
  C       1.378331     -2.549056     -0.007184
  H       0.708595     -2.568650     -0.877531
  H       0.706629     -2.572650      0.861531
  C       2.255570     -3.808923     -0.009114
  H       2.915763     -3.802823     -0.888471
  H       2.913719     -3.806857      0.871797
  C       1.427214     -5.103520     -0.013086
  H       0.764191     -5.110952      0.863111
  H       0.766425     -5.107001     -0.890996
  C       2.291844     -6.372057     -0.014860
  H       2.938201     -6.413920      0.870132
  H       2.940934     -6.409563     -0.898046
  C       4.125911      2.701470      0.007702
  H       4.796245      2.714030      0.880158
  H       4.797172      2.718358     -0.863967
  C       3.274056      3.976813      0.010402
  H       2.615581      3.987556     -0.869418
  H       2.614523      3.983199      0.889467
  C       4.125656      5.256976      0.014106
  H       4.786820      5.248807      0.892202
  H       4.788077      5.253038     -0.863071
  C       3.284276      6.540994      0.016612
  H       2.636381      6.589738      0.899825
  H       2.638127      6.594343     -0.867613
  H       1.675140     -7.277211     -0.018042
  H       3.917033      7.435028      0.019568
  H       5.219436      0.219105      0.001058
  C      -1.367503     -0.016747     -0.000239
37
Coordinates from ORCA-job BDE E -621.866784726891
  C      -0.077703     -0.008331     -0.000306
  C       1.320679      0.009845     -0.000144
  C       2.092513     -1.212905     -0.003416
  C       3.483533     -1.091553     -0.002905
  C       4.119561      0.161668      0.000639
  C       3.381478      1.372949      0.003894
  C       1.994201      1.277625      0.003422
  H       4.104068     -1.981722     -0.005261
  H       1.373857      2.166489      0.005793
  C       1.371956     -2.546883     -0.007237
  H       0.702410     -2.567995     -0.876227
  H       0.700558     -2.571948      0.860197
  C       2.257033     -3.803262     -0.009177
  H       2.915327     -3.796541     -0.888462
  H       2.913499     -3.800447      0.871501
  C       1.429650     -5.100827     -0.012941
  H       0.768611     -5.110068      0.863261
  H       0.770603     -5.106264     -0.890675
  C       2.300020     -6.368155     -0.014713
  H       2.945418     -6.406603      0.869984
  H       2.947895     -6.402417     -0.897772
  C       4.133208      2.698026      0.007694
  H       4.799692      2.709941      0.881644
  H       4.800723      2.714323     -0.865396
  C       3.278837      3.973719      0.010385
  H       2.621788      3.983397     -0.869206
  H       2.620611      3.978959      0.889127
  C       4.131154      5.255408      0.014205
  H       4.790188      5.248811      0.892498
  H       4.791555      5.253122     -0.863083
  C       3.284742      6.538869      0.016712
  H       2.637786      6.584424      0.899589
  H       2.639644      6.589111     -0.867268
  H       1.685605     -7.273862     -0.017718
  H       3.915866      7.433034      0.019749
  H       5.206440      0.209858      0.000908
  C      -1.363296     -0.025564     -0.000458
37
Coordinates from ORCA-job BDE E -621.866898106596
  C      -0.077689     -0.010049     -0.000349
  C       1.323610      0.012215     -0.000124
  C       2.090453     -1.211678     -0.003421
  C       3.483963     -1.093033     -0.002929
  C       4.116229      0.161273      0.000643
  C       3.382572      1.374849      0.003929
  C       1.994669      1.279174      0.003457
  H       4.102598     -1.984086     -0.005321
  H       1.372533      2.166825      0.005830
  C       1.371349     -2.546937     -0.007241
  H       0.701503     -2.568444     -0.876145
  H       0.699719     -2.572427      0.860157
  C       2.257781     -3.802415     -0.009233
  H       2.915245     -3.796306     -0.889076
  H       2.913576     -3.800178      0.871879
  C       1.429354     -5.099945     -0.012889
  H       0.769098     -5.109175      0.863883
  H       0.770911     -5.105411     -0.891056
  C       2.300409     -6.367447     -0.014716
  H       2.945542     -6.405046      0.870251
  H       2.947823     -6.400922     -0.898183
  C       4.136523      2.698341      0.007748
  H       4.801433      2.710215      0.882716
  H       4.802556      2.714578     -0.866293
  C       3.280662      3.973831      0.010379
  H       2.624180      3.982701     -0.869606
  H       2.622911      3.978277      0.889444
  C       4.132382      5.256254      0.014233
  H       4.790585      5.250723      0.893131
  H       4.792039      5.255023     -0.863591
  C       3.283448      6.538782      0.016685
  H       2.636690      6.582465      0.899840
  H       2.638636      6.587141     -0.867649
  H       1.685497     -7.272910     -0.017620
  H       3.913788      7.433594      0.019747
  H       5.203771      0.206126      0.000888
  C      -1.366638     -0.031745     -0.000561
37
Coordinates from ORCA-job BDE E -621.866922179071
  C      -0.076370     -0.011610     -0.000359
  C       1.326156      0.013847     -0.000136
  C       2.089100     -1.211217     -0.003436
  C       3.484162     -1.094246     -0.002954
  C       4.113942      0.161293      0.000634
  C       3.383050      1.376800      0.003965
  C       1.994897      1.281058      0.003488
  H       4.101323     -1.986093     -0.005367
  H       1.371159      2.167668      0.005879
  C       1.371207     -2.547328     -0.007254
  H       0.701033     -2.569348     -0.876182
  H       0.699315     -2.573358      0.860219
  C       2.258210     -3.802113     -0.009294
  H       2.914999     -3.796667     -0.889738
  H       2.913495     -3.800502      0.872292
  C       1.429015     -5.099495     -0.012837
  H       0.769383     -5.108642      0.864531
  H       0.771001     -5.104910     -0.891451
  C       2.300304     -6.367137     -0.014734
  H       2.945282     -6.404096      0.870521
  H       2.947340     -6.400033     -0.898647
  C       4.138498      2.698897      0.007828
  H       4.802271      2.710667      0.883642
  H       4.803543      2.715010     -0.866948
  C       3.281838      3.974389      0.010372
  H       2.625849      3.982670     -0.870102
  H       2.624449      3.978275      0.889825
  C       4.133110      5.257112      0.014266
  H       4.790683      5.252308      0.893760
  H       4.792261      5.256581     -0.864059
  C       3.282702      6.539058      0.016633
  H       2.636065      6.581385      0.900098
  H       2.638137      6.586033     -0.868109
  H       1.684804     -7.272376     -0.017528
  H       3.912738      7.434254      0.019725
  H       5.201986      0.203572      0.000870
  C      -1.367229     -0.037474     -0.000574
37
Coordinates from ORCA-job BDE E -621.866923017662
  C      -0.076122     -0.011892     -0.000317
  C       1.326183      0.013929     -0.000063
  C       2.088847     -1.211300     -0.003391
  C       3.483959     -1.094227     -0.002912
  C       4.113565      0.161459      0.000691
  C       3.382691      1.377096      0.004023
  C       1.994582      1.281461      0.003546
  H       4.101019     -1.986142     -0.005342
  H       1.370545      2.167830      0.005930
  C       1.371213     -2.547427     -0.007228
  H       0.700961     -2.569613     -0.876115
  H       0.699279     -2.573667      0.860228
  C       2.258233     -3.802106     -0.009315
  H       2.914907     -3.796778     -0.889859
  H       2.913470     -3.800638      0.872319
  C       1.429085     -5.099536     -0.012844
  H       0.769568     -5.108717      0.864617
  H       0.771102     -5.104953     -0.891488
  C       2.300411     -6.367149     -0.014805
  H       2.945394     -6.404015      0.870452
  H       2.947352     -6.399934     -0.898795
  C       4.138362      2.698956      0.007889
  H       4.802037      2.710669      0.883785
  H       4.803395      2.714969     -0.866904
  C       3.281896      3.974623      0.010362
  H       2.626024      3.982873     -0.870208
  H       2.624555      3.978531      0.889860
  C       4.133269      5.257207      0.014253
  H       4.790750      5.252399      0.893825
  H       4.792396      5.256623     -0.864099
  C       3.283032      6.539289      0.016551
  H       2.636411      6.581612      0.900030
  H       2.638550      6.586209     -0.868258
  H       1.684874     -7.272360     -0.017574
  H       3.913240      7.434359      0.019640
  H       5.201627      0.203465      0.000915
  C      -1.366953     -0.038870     -0.000562
