63
Coordinates from ORCA-job opt E -1312.046893092265
  C      12.362850     -0.005862     -0.004911
  C      11.146172     -0.047508     -0.002624
  C       5.466628      0.001226     -0.001475
  C       9.718900     -0.070949     -0.002273
  C       8.993906     -1.318512     -0.005644
  C       7.574031     -1.227032     -0.005265
  C       6.895524     -0.004849     -0.001703
  C       7.626337      1.225684      0.001704
  C       9.020735      1.148999      0.001371
  H       6.982539     -2.142716     -0.007787
  H       9.610974      2.065153      0.003943
  C       9.660292     -2.564658     -0.009141
  H      10.753732     -2.547047     -0.008995
  C       8.980314     -3.900778     -0.012800
  H       8.307597     -3.986848      0.865858
  H       8.306008     -3.981255     -0.890754
  C       9.956779     -5.083679     -0.017441
  H      10.616397     -5.001932     -0.900994
  H      10.618071     -5.007511      0.865365
  C       9.254626     -6.442473     -0.021066
  H       8.610781     -6.559039     -0.910231
  H       8.612394     -6.564614      0.868516
  C       6.876267      2.541545      0.005519
  H       6.198201      2.555290     -0.868913
  H       6.198206      2.550230      0.880020
  C       7.718864      3.819566      0.009186
  H       8.382743      3.829196      0.893739
  H       8.382543      3.834389     -0.875448
  C       6.862386      5.091073      0.013024
  H       6.195520      5.083606     -0.869702
  H       6.196095      5.078646      0.896127
  C       7.693142      6.376217      0.016369
  H       8.344289      6.435101     -0.873151
  H       8.344988      6.430022      0.905700
  C       4.244587      0.000557     -0.000053
  H       9.981002     -7.270916     -0.024328
  H       7.051411      7.272043      0.019183
  C       2.816338      0.000000      0.000000
  C       2.097447     -1.215254     -0.002864
  C       0.702904     -1.210178     -0.002883
  C       0.000000      0.000000      0.000000
  C       0.702775      1.210340      0.002933
  C       2.097092      1.215232      0.002966
  H      -3.743687     -0.000111     -0.000030
  H       0.160027      2.158419      0.005201
  H       2.648065     -2.157550     -0.005095
  H       2.647295      2.158148      0.005247
  H       0.159321     -2.158064     -0.005159
  C      13.790255      0.043213     -0.005983
  C      14.550940     -1.146325     -0.009366
  C      15.944465     -1.092792     -0.010316
  C      16.604892      0.141082     -0.007988
  C      15.860484      1.326269     -0.004708
  C      14.466839      1.282706     -0.003726
  H      20.347923      0.178944     -0.008736
  H      16.369959      2.292637     -0.002888
  H      14.033398     -2.107186     -0.011190
  H      13.884203      2.205933     -0.001165
  H      16.520657     -2.021215     -0.012901
  C      18.033801      0.141082     -0.007988
  C      19.255843      0.141082     -0.007988
  C      -1.428909      0.000000      0.000000
  C      -2.650951      0.000000      0.000000
63
Coordinates from ORCA-job opt E -1312.048504920261
  C      12.366879     -0.010028     -0.004735
  C      11.144268     -0.051370     -0.002546
  C       5.468791      0.001491     -0.001332
  C       9.721329     -0.073861     -0.002272
  C       8.993391     -1.321852     -0.005651
  C       7.573856     -1.228417     -0.005182
  C       6.897053     -0.005402     -0.001564
  C       7.629130      1.225275      0.001803
  C       9.022637      1.147850      0.001400
  H       6.981134     -2.143279     -0.007722
  H       9.613021      2.063806      0.003955
  C       9.655873     -2.569109     -0.009197
  H      10.749146     -2.554372     -0.009156
  C       8.972959     -3.903720     -0.012754
  H       8.300270     -3.988279      0.866040
  H       8.298491     -3.982725     -0.890695
  C       9.946796     -5.088824     -0.017461
  H      10.606404     -5.008684     -0.901267
  H      10.608299     -5.014198      0.865422
  C       9.241630     -6.445960     -0.020944
  H       8.597495     -6.561079     -0.910046
  H       8.599331     -6.566604      0.868749
  C       6.879515      2.541368      0.005564
  H       6.201431      2.555074     -0.868835
  H       6.201597      2.550200      0.880157
  C       7.721757      3.819504      0.008973
  H       8.385653      3.829407      0.893537
  H       8.385253      3.834364     -0.875824
  C       6.864554      5.090611      0.012679
  H       6.197628      5.082614     -0.869970
  H       6.198398      5.077971      0.895859
  C       7.694533      6.376182      0.015686
  H       8.345479      6.435352     -0.873976
  H       8.346398      6.430597      0.904981
  C       4.246436      0.001392      0.000074
  H       9.966105     -7.275984     -0.024285
  H       7.052282      7.271555      0.018419
  C       2.819371      0.000796      0.000133
  C       2.099836     -1.214848     -0.003414
  C       0.707690     -1.213506     -0.003461
  C      -0.005227      0.000219      0.000077
  C       0.707090      1.214390      0.003666
  C       2.099096      1.216145      0.003709
  H      -3.724555     -0.000445     -0.000091
  H       0.164685      2.161234      0.006461
  H       2.650240     -2.157083     -0.006193
  H       2.648632      2.158971      0.006531
  H       0.165220     -2.160306     -0.006292
  C      13.792255      0.038887     -0.005698
  C      14.554525     -1.150901     -0.009889
  C      15.945515     -1.099496     -0.010677
  C      16.615698      0.140007     -0.007291
  C      15.861049      1.327039     -0.003305
  C      14.469949      1.278953     -0.002525
  H      20.333853      0.222350     -0.009936
  H      16.369264      2.292876     -0.000809
  H      14.038194     -2.112380     -0.012515
  H      13.887675      2.201705      0.000639
  H      16.521323     -2.026169     -0.013989
  C      18.047798      0.161884     -0.008040
  C      19.263911      0.175823     -0.008682
  C      -1.437494     -0.000032      0.000023
  C      -2.653586     -0.000199     -0.000022
63
Coordinates from ORCA-job opt E -1312.048686975169
  C      12.367687     -0.013175     -0.004651
  C      11.143500     -0.054160     -0.002503
  C       5.469954      0.001961     -0.001274
  C       9.723276     -0.075878     -0.002220
  C       8.993117     -1.323894     -0.005537
  C       7.573552     -1.229076     -0.005064
  C       6.897826     -0.005688     -0.001520
  C       7.631120      1.224978      0.001772
  C       9.023862      1.146895      0.001373
  H       6.979989     -2.143348     -0.007552
  H       9.614530      2.062669      0.003855
  C       9.653372     -2.571526     -0.009010
  H      10.746745     -2.558312     -0.008998
  C       8.969349     -3.905613     -0.012418
  H       8.296745     -3.989592      0.866464
  H       8.294911     -3.984214     -0.890389
  C       9.942316     -5.091451     -0.017028
  H      10.601853     -5.011986     -0.900952
  H      10.603840     -5.017285      0.865882
  C       9.236071     -6.448001     -0.020308
  H       8.591844     -6.562712     -0.909394
  H       8.593787     -6.568036      0.869474
  C       6.881889      2.541214      0.005403
  H       6.203800      2.554878     -0.868996
  H       6.204072      2.550255      0.880076
  C       7.724186      3.819279      0.008552
  H       8.388074      3.829324      0.893123
  H       8.387573      3.833974     -0.876333
  C       6.866767      5.090276      0.012051
  H       6.199816      5.081949     -0.870569
  H       6.200689      5.077674      0.895282
  C       7.696485      6.375992      0.014733
  H       8.347312      6.435163     -0.875013
  H       8.348356      6.430778      0.903999
  C       4.247431      0.002418      0.000115
  H       9.959890     -7.278583     -0.023605
  H       7.054028      7.271215      0.017328
  C       2.821173      0.001748      0.000187
  C       2.100461     -1.213339     -0.004927
  C       0.709727     -1.213456     -0.004964
  C      -0.008314      0.000658      0.000161
  C       0.708723      1.215451      0.005334
  C       2.099356      1.216285      0.005358
  H      -3.727086     -0.000449      0.000025
  H       0.164397      2.161221      0.009392
  H       2.649924     -2.156216     -0.008965
  H       2.647631      2.159914      0.009434
  H       0.165896     -2.159482     -0.009038
  C      13.791411      0.035842     -0.005587
  C      14.556022     -1.153247     -0.011801
  C      15.945317     -1.102674     -0.012605
  C      16.620121      0.137685     -0.007246
  C      15.860073      1.324868     -0.001084
  C      14.470381      1.275480     -0.000297
  H      20.336905      0.250168     -0.010370
  H      16.369675      2.289940      0.003122
  H      14.041517     -2.115742     -0.016041
  H      13.888956      2.198869      0.004537
  H      16.523049     -2.028246     -0.017487
  C      18.051821      0.174799     -0.008185
  C      19.266664      0.198243     -0.009005
  C      -1.440635      0.000198      0.000119
  C      -2.655568     -0.000098      0.000083
63
Coordinates from ORCA-job opt E -1312.048736687627
  C      12.367734     -0.016119     -0.004623
  C      11.143370     -0.056864     -0.002498
  C       5.470304      0.002309     -0.001220
  C       9.724571     -0.077934     -0.002157
  C       8.992623     -1.325662     -0.005370
  C       7.572896     -1.229733     -0.004920
  C       6.897939     -0.006202     -0.001466
  C       7.632459      1.224319      0.001746
  C       9.024550      1.145457      0.001365
  H       6.978732     -2.143610     -0.007325
  H       9.615724      2.060949      0.003758
  C       9.651451     -2.573427     -0.008660
  H      10.744921     -2.561210     -0.008593
  C       8.967099     -3.907417     -0.011853
  H       8.294549     -3.991144      0.867069
  H       8.292792     -3.986110     -0.889889
  C       9.939931     -5.093386     -0.016180
  H      10.599429     -5.014260     -0.900151
  H      10.601383     -5.019161      0.866764
  C       9.233421     -6.449812     -0.019167
  H       8.589218     -6.564613     -0.908259
  H       8.591149     -6.569549      0.870664
  C       6.883624      2.540743      0.005217
  H       6.205503      2.554391     -0.869158
  H       6.205912      2.550078      0.879969
  C       7.726205      3.818628      0.008060
  H       8.390100      3.828736      0.892618
  H       8.389511      3.833002     -0.876885
  C       6.868899      5.089723      0.011307
  H       6.201922      5.081200     -0.871288
  H       6.202886      5.077352      0.894586
  C       7.698693      6.375387      0.013632
  H       8.349436      6.434353     -0.876184
  H       8.350591      6.430395      0.902862
  C       4.247713      0.003495      0.000132
  H       9.957102     -7.280520     -0.022281
  H       7.056261      7.270639      0.016053
  C       2.822010      0.002887      0.000201
  C       2.099965     -1.211487     -0.007246
  C       0.709989     -1.211928     -0.007297
  C      -0.010676      0.001645      0.000156
  C       0.708888      1.215944      0.007665
  C       2.098772      1.216629      0.007692
  H      -3.729689      0.000593     -0.000003
  H       0.162102      2.160506      0.013569
  H       2.648119     -2.155241     -0.013139
  H       2.645657      2.161197      0.013633
  H       0.163969     -2.156921     -0.013222
  C      13.790314      0.033566     -0.005563
  C      14.557568     -1.154337     -0.014702
  C      15.945910     -1.103718     -0.015593
  C      16.622569      0.135991     -0.007388
  C      15.859066      1.322681      0.001722
  C      14.470153      1.272912      0.002583
  H      20.338802      0.270971     -0.010783
  H      16.370714      2.286804      0.008228
  H      14.045242     -2.118074     -0.021236
  H      13.889535      2.196981      0.009761
  H      16.526278     -2.027961     -0.022776
  C      18.052790      0.184810     -0.008433
  C      19.267786      0.215840     -0.009372
  C      -1.441993      0.001163      0.000103
  C      -2.657233      0.000903      0.000060
63
Coordinates from ORCA-job opt E -1312.048742954120
  C      12.367662     -0.017429     -0.004692
  C      11.143521     -0.058192     -0.002549
  C       5.470087      0.002283     -0.001192
  C       9.724687     -0.079062     -0.002124
  C       8.992238     -1.326520     -0.005253
  C       7.572435     -1.230217     -0.004829
  C       6.897692     -0.006692     -0.001432
  C       7.632724      1.223709      0.001736
  C       9.024624      1.144411      0.001362
  H       6.978158     -2.144039     -0.007183
  H       9.616178      2.059693      0.003689
  C       9.650729     -2.574337     -0.008386
  H      10.744218     -2.562447     -0.008246
  C       8.966411     -3.908386     -0.011428
  H       8.293829     -3.992025      0.867474
  H       8.292201     -3.987273     -0.889516
  C       9.939351     -5.094275     -0.015488
  H      10.598879     -5.015265     -0.899441
  H      10.600732     -5.019843      0.867487
  C       9.232922     -6.450756     -0.018265
  H       8.588779     -6.565769     -0.907372
  H       8.590623     -6.570383      0.871561
  C       6.884115      2.540272      0.005107
  H       6.205945      2.553924     -0.869227
  H       6.206478      2.549827      0.879912
  C       7.726967      3.817989      0.007730
  H       8.390892      3.828087      0.892264
  H       8.390242      3.832078     -0.877240
  C       6.869923      5.089266      0.010810
  H       6.202920      5.080725     -0.871764
  H       6.203944      5.077160      0.894118
  C       7.699974      6.374766      0.012901
  H       8.350690      6.433471     -0.876952
  H       8.351911      6.429798      0.902100
  C       4.247506      0.003951      0.000125
  H       9.956665     -7.281416     -0.021193
  H       7.057713      7.270145      0.015202
  C       2.821911      0.003477      0.000184
  C       2.099407     -1.210676     -0.009039
  C       0.709462     -1.210850     -0.009102
  C      -0.011239      0.002425      0.000123
  C       0.708535      1.216321      0.009415
  C       2.098380      1.217089      0.009449
  H      -3.730168      0.001753     -0.000047
  H       0.160763      2.160362      0.016730
  H       2.646933     -2.154811     -0.016348
  H       2.644762      2.161972      0.016818
  H       0.162388     -2.155287     -0.016440
  C      13.790076      0.033042     -0.005675
  C      14.558480     -1.154105     -0.016852
  C      15.946816     -1.102917     -0.017777
  C      16.622891      0.136385     -0.007557
  C      15.858480      1.322669      0.003612
  C      14.469690      1.272663      0.004501
  H      20.338838      0.277203     -0.010905
  H      16.370876      2.286427      0.011725
  H      14.047272     -2.118461     -0.025018
  H      13.889102      2.196774      0.013326
  H      16.528454     -2.026429     -0.026595
  C      18.052480      0.188470     -0.008590
  C      19.267651      0.222053     -0.009533
  C      -1.442055      0.002062      0.000065
  C      -2.657538      0.001937      0.000018
63
Coordinates from ORCA-job opt E -1312.048745728702
  C      12.367618     -0.018532     -0.004753
  C      11.143611     -0.059361     -0.002601
  C       5.469885      0.002117     -0.001164
  C       9.724582     -0.080109     -0.002091
  C       8.991916     -1.327336     -0.005136
  C       7.572088     -1.230783     -0.004744
  C       6.897490     -0.007239     -0.001397
  C       7.632849      1.223054      0.001738
  C       9.024676      1.143404      0.001368
  H       6.977791     -2.144604     -0.007053
  H       9.616567      2.058488      0.003638
  C       9.650207     -2.575248     -0.008102
  H      10.743701     -2.563628     -0.007878
  C       8.965848     -3.909299     -0.010989
  H       8.293185     -3.992786      0.867867
  H       8.291728     -3.988342     -0.889132
  C       9.938800     -5.095182     -0.014740
  H      10.598397     -5.016343     -0.898657
  H      10.600106     -5.020568      0.868272
  C       9.232369     -6.451669     -0.017302
  H       8.588292     -6.566864     -0.906431
  H       8.590009     -6.571122      0.872502
  C       6.884458      2.539749      0.005018
  H       6.206217      2.553404     -0.869255
  H       6.206912      2.549533      0.879889
  C       7.727588      3.817287      0.007400
  H       8.391559      3.827374      0.891900
  H       8.390832      3.831071     -0.877598
  C       6.870844      5.088769      0.010312
  H       6.203805      5.080234     -0.872235
  H       6.204903      5.076962      0.893652
  C       7.701199      6.374073      0.012156
  H       8.351890      6.432479     -0.877734
  H       8.353185      6.429104      0.901318
  C       4.247317      0.004263      0.000113
  H       9.956118     -7.282326     -0.020009
  H       7.059147      7.269604      0.014332
  C       2.821734      0.003957      0.000161
  C       2.099059     -1.210110     -0.010971
  C       0.709055     -1.210022     -0.011049
  C      -0.011312      0.003195      0.000073
  C       0.708381      1.216884      0.011273
  C       2.098279      1.217628      0.011318
  H      -3.730190      0.003013     -0.000126
  H       0.160149      2.160656      0.020097
  H       2.646209     -2.154451     -0.019796
  H       2.644472      2.162609      0.020216
  H       0.161360     -2.154098     -0.019906
  C      13.790047      0.032832     -0.005773
  C      14.559249     -1.153637     -0.019041
  C      15.947717     -1.101674     -0.020006
  C      16.622746      0.137654     -0.007727
  C      15.857681      1.323547      0.005516
  C      14.468956      1.272965      0.006438
  H      20.338567      0.281125     -0.011097
  H      16.370236      2.287215      0.015249
  H      14.048947     -2.118470     -0.028874
  H      13.888005      2.196830      0.016924
  H      16.530244     -2.024620     -0.030496
  C      18.052128      0.191346     -0.008781
  C      19.267324      0.226741     -0.009750
  C      -1.441978      0.002993      0.000003
  C      -2.657541      0.003040     -0.000054
63
Coordinates from ORCA-job opt E -1312.048748677669
  C      12.367582     -0.020043     -0.004849
  C      11.143648     -0.060946     -0.002687
  C       5.469740      0.001800     -0.001114
  C       9.724436     -0.081536     -0.002047
  C       8.991558     -1.328511     -0.004976
  C       7.571727     -1.231640     -0.004624
  C       6.897344     -0.008021     -0.001342
  C       7.633047      1.222132      0.001745
  C       9.024829      1.142079      0.001375
  H       6.977396     -2.145448     -0.006875
  H       9.617110      2.056923      0.003560
  C       9.649573     -2.576587     -0.007709
  H      10.743072     -2.565338     -0.007375
  C       8.965029     -3.910562     -0.010371
  H       8.292221     -3.993749      0.868405
  H       8.291033     -3.989762     -0.888597
  C       9.937864     -5.096541     -0.013656
  H      10.597585     -5.018028     -0.897509
  H      10.599063     -5.021729      0.869419
  C       9.231296     -6.452960     -0.015901
  H       8.587310     -6.568358     -0.905070
  H       8.588821     -6.572085      0.873864
  C       6.884957      2.539001      0.004898
  H       6.206584      2.552638     -0.869268
  H       6.207564      2.549118      0.879882
  C       7.728448      3.816302      0.006888
  H       8.392501      3.826412      0.891327
  H       8.391631      3.829644     -0.878161
  C       6.872098      5.088049      0.009542
  H       6.204990      5.079491     -0.872953
  H       6.206220      5.076673      0.892937
  C       7.702851      6.373094      0.010995
  H       8.353499      6.431063     -0.878957
  H       8.354920      6.428157      0.900095
  C       4.247183      0.004613      0.000103
  H       9.954965     -7.283689     -0.018273
  H       7.061079      7.268826      0.012977
  C       2.821579      0.004561      0.000138
  C       2.098794     -1.209416     -0.013878
  C       0.708726     -1.209047     -0.013974
  C      -0.011200      0.004250      0.000025
  C       0.708441      1.217793      0.014115
  C       2.098397      1.218371      0.014168
  H      -3.730081      0.004806     -0.000194
  H       0.159934      2.161376      0.025228
  H       2.645608     -2.153919     -0.024998
  H       2.644548      2.163345      0.025377
  H       0.160488     -2.152778     -0.025126
  C      13.790054      0.032569     -0.005924
  C      14.560246     -1.153015     -0.022235
  C      15.948862     -1.099850     -0.023246
  C      16.622394      0.139879     -0.007951
  C      15.856350      1.325186      0.008341
  C      14.467732      1.273485      0.009297
  H      20.338147      0.286172     -0.011327
  H      16.368679      2.288944      0.020461
  H      14.051085     -2.118427     -0.034504
  H      13.886000      2.196815      0.022215
  H      16.532395     -2.022119     -0.036171
  C      18.051721      0.195253     -0.009036
  C      19.266855      0.233174     -0.010031
  C      -1.441867      0.004294     -0.000054
  C      -2.657450      0.004598     -0.000118
63
Coordinates from ORCA-job opt E -1312.048752075459
  C      12.367551     -0.022254     -0.004975
  C      11.143631     -0.063186     -0.002821
  C       5.469682      0.001266     -0.001032
  C       9.724296     -0.083535     -0.001993
  C       8.991139     -1.330224     -0.004756
  C       7.571325     -1.232918     -0.004460
  C       6.897281     -0.009137     -0.001263
  C       7.633383      1.220821      0.001759
  C       9.025140      1.140287      0.001387
  H       6.976896     -2.146667     -0.006629
  H       9.617870      2.054842      0.003450
  C       9.648755     -2.578541     -0.007153
  H      10.742261     -2.567783     -0.006670
  C       8.963843     -3.912339     -0.009479
  H       8.290780     -3.995013      0.869154
  H       8.290045     -3.991732     -0.887844
  C       9.936394     -5.098551     -0.012022
  H      10.596332     -5.020597     -0.895764
  H      10.597418     -5.023486      0.871161
  C       9.229505     -6.454804     -0.013793
  H       8.585670     -6.570461     -0.903036
  H       8.586823     -6.573365      0.875899
  C       6.885714      2.537925      0.004736
  H       6.207101      2.551503     -0.869239
  H       6.208582      2.548536      0.879917
  C       7.729675      3.814914      0.006088
  H       8.393869      3.825128      0.890421
  H       8.392742      3.827616     -0.879059
  C       6.873828      5.086999      0.008342
  H       6.206604      5.078346     -0.874065
  H       6.208059      5.076247      0.891826
  C       7.705091      6.371713      0.009166
  H       8.355661      6.429049     -0.880885
  H       8.357290      6.426887      0.898165
  C       4.247132      0.005053      0.000093
  H       9.952980     -7.285703     -0.015628
  H       7.063682      7.267705      0.010843
  C       2.821481      0.005381      0.000119
  C       2.098575     -1.208441     -0.018390
  C       0.708457     -1.207742     -0.018506
  C      -0.010951      0.005754     -0.000019
  C       0.708760      1.219154      0.018572
  C       2.098763      1.219383      0.018627
  H      -3.729885      0.007416     -0.000250
  H       0.160185      2.162633      0.033254
  H       2.645074     -2.153066     -0.033090
  H       2.645044      2.164223      0.033434
  H       0.159726     -2.151122     -0.033232
  C      13.790060      0.032090     -0.006112
  C      14.561651     -1.152276     -0.026981
  C      15.950386     -1.097278     -0.028060
  C      16.621868      0.143292     -0.008252
  C      15.854305      1.327666      0.012600
  C      14.465840      1.274098      0.013605
  H      20.337567      0.293400     -0.011659
  H      16.365900      2.291752      0.028292
  H      14.054018     -2.118434     -0.042893
  H      13.882773      2.196509      0.030154
  H      16.535171     -2.018671     -0.044626
  C      18.051227      0.200782     -0.009408
  C      19.266200      0.242710     -0.010447
  C      -1.441725      0.006167     -0.000105
  C      -2.657286      0.006856     -0.000174
63
Coordinates from ORCA-job opt E -1312.048754433303
  C      12.367543     -0.024312     -0.005088
  C      11.143571     -0.065154     -0.002967
  C       5.469756      0.000684     -0.000933
  C       9.724258     -0.085272     -0.001952
  C       8.990849     -1.331782     -0.004575
  C       7.571060     -1.234113     -0.004319
  C       6.897353     -0.010144     -0.001180
  C       7.633726      1.219642      0.001790
  C       9.025486      1.138780      0.001404
  H       6.976468     -2.147754     -0.006423
  H       9.618489      2.053147      0.003355
  C       9.648129     -2.580293     -0.006686
  H      10.741641     -2.569892     -0.006090
  C       8.962823     -3.913887     -0.008706
  H       8.289467     -3.996029      0.869756
  H       8.289252     -3.993445     -0.887234
  C       9.935034     -5.100379     -0.010478
  H      10.595225     -5.023011     -0.894085
  H      10.595855     -5.025099      0.872838
  C       9.227765     -6.456430     -0.011808
  H       8.584106     -6.572312     -0.901150
  H       8.584836     -6.574402      0.877785
  C       6.886417      2.536944      0.004622
  H       6.207508      2.550422     -0.869119
  H       6.209588      2.548020      0.880034
  C       7.730738      3.813692      0.005282
  H       8.395095      3.824099      0.889493
  H       8.393655      3.825804     -0.879985
  C       6.875261      5.086024      0.007136
  H       6.207905      5.077197     -0.875168
  H       6.209617      5.075837      0.890722
  C       7.706899      6.370494      0.007302
  H       8.357373      6.427249     -0.882856
  H       8.359230      6.425862      0.896192
  C       4.247207      0.005381      0.000094
  H       9.951003     -7.287535     -0.013084
  H       7.065759      7.266678      0.008666
  C       2.821510      0.006084      0.000122
  C       2.098453     -1.207532     -0.022880
  C       0.708328     -1.206561     -0.023003
  C      -0.010729      0.007147     -0.000012
  C       0.709223      1.220410      0.023082
  C       2.099232      1.220230      0.023126
  H      -3.729724      0.009902     -0.000215
  H       0.160906      2.163962      0.041350
  H       2.644802     -2.152175     -0.041170
  H       2.645813      2.164826      0.041532
  H       0.159412     -2.149754     -0.041307
  C      13.790041      0.031500     -0.006275
  C      14.562935     -1.151829     -0.031361
  C      15.951664     -1.095081     -0.032495
  C      16.621456      0.146423     -0.008497
  C      15.852429      1.329831      0.016595
  C      14.464082      1.274395      0.017634
  H      20.337105      0.300020     -0.011864
  H      16.362962      2.294406      0.035620
  H      14.056550     -2.118572     -0.050652
  H      13.879658      2.195865      0.037557
  H      16.537411     -2.015776     -0.052431
  C      18.050879      0.205579     -0.009725
  C      19.265646      0.251854     -0.010775
  C      -1.441628      0.007925     -0.000091
  C      -2.657148      0.008994     -0.000151
63
Coordinates from ORCA-job opt E -1312.048755510926
  C      12.367562     -0.025353     -0.005112
  C      11.143519     -0.065992     -0.003068
  C       5.469890      0.000271     -0.000871
  C       9.724331     -0.086000     -0.001958
  C       8.990802     -1.332508     -0.004527
  C       7.571032     -1.234720     -0.004282
  C       6.897490     -0.010632     -0.001147
  C       7.633900      1.219081      0.001814
  C       9.025682      1.138177      0.001410
  H       6.976279     -2.148248     -0.006363
  H       9.618659      2.052549      0.003314
  C       9.647984     -2.581064     -0.006515
  H      10.741495     -2.570695     -0.005895
  C       8.962471     -3.914540     -0.008381
  H       8.288877     -3.996352      0.869927
  H       8.289104     -3.994208     -0.887058
  C       9.934469     -5.101208     -0.009605
  H      10.594878     -5.024210     -0.893084
  H      10.595105     -5.025795      0.873838
  C       9.226960     -6.457129     -0.010705
  H       8.583471     -6.573150     -0.900153
  H       8.583817     -6.574730      0.878783
  C       6.886726      2.536455      0.004599
  H       6.207565      2.549823     -0.868948
  H       6.210134      2.547780      0.880196
  C       7.731134      3.813145      0.004772
  H       8.395615      3.823781      0.888888
  H       8.393922      3.824958     -0.880595
  C       6.875724      5.085521      0.006378
  H       6.208273      5.076495     -0.875853
  H       6.210170      5.075610      0.890034
  C       7.707429      6.369947      0.006112
  H       8.357833      6.426411     -0.884117
  H       8.359838      6.425535      0.894932
  C       4.247338      0.005451      0.000087
  H       9.950044     -7.288367     -0.011582
  H       7.066341      7.266168      0.007269
  C       2.821629      0.006383      0.000141
  C       2.098390     -1.207048     -0.025735
  C       0.708301     -1.205922     -0.025837
  C      -0.010692      0.007890      0.000061
  C       0.709575      1.221031      0.026034
  C       2.099553      1.220568      0.026044
  H      -3.729702      0.011321     -0.000055
  H       0.161718      2.164798      0.046616
  H       2.644775     -2.151625     -0.046336
  H       2.646460      2.164929      0.046745
  H       0.159535     -2.149151     -0.046430
  C      13.790005      0.031018     -0.006309
  C      14.563569     -1.151912     -0.033572
  C      15.952173     -1.094278     -0.034735
  C      16.621395      0.147768     -0.008574
  C      15.851628      1.330608      0.018706
  C      14.463298      1.274190      0.019761
  H      20.336992      0.303250     -0.011872
  H      16.361265      2.295615      0.039457
  H      14.057597     -2.118829     -0.054600
  H      13.878149      2.195162      0.041419
  H      16.538204     -2.014748     -0.056409
  C      18.050842      0.207453     -0.009857
  C      19.265452      0.256949     -0.010893
  C      -1.441637      0.008901      0.000013
  C      -2.657127      0.010201     -0.000019
63
Coordinates from ORCA-job opt E -1312.048755972538
  C      12.367592     -0.025121     -0.005055
  C      11.143516     -0.065571     -0.003091
  C       5.469965      0.000164     -0.000860
  C       9.724428     -0.085636     -0.001988
  C       8.990947     -1.332264     -0.004597
  C       7.571180     -1.234603     -0.004335
  C       6.897570     -0.010526     -0.001156
  C       7.633835      1.219230      0.001830
  C       9.025636      1.138500      0.001412
  H       6.976365     -2.148083     -0.006442
  H       9.618395      2.053009      0.003336
  C       9.648268     -2.580728     -0.006648
  H      10.741775     -2.570134     -0.006087
  C       8.962822     -3.914226     -0.008547
  H       8.289115     -3.996019      0.869672
  H       8.289579     -3.993943     -0.887314
  C       9.934837     -5.100882     -0.009597
  H      10.595360     -5.023915     -0.892993
  H      10.595356     -5.025429      0.873929
  C       9.227340     -6.456809     -0.010736
  H       8.583968     -6.572870     -0.900262
  H       8.584084     -6.574381      0.878675
  C       6.886556      2.536546      0.004661
  H       6.207286      2.549836     -0.868804
  H       6.210054      2.547844      0.880332
  C       7.730810      3.813338      0.004708
  H       8.395334      3.824131      0.888791
  H       8.393542      3.825194     -0.880701
  C       6.875218      5.085593      0.006284
  H       6.207746      5.076437     -0.875929
  H       6.209688      5.075624      0.889957
  C       7.706740      6.370139      0.005945
  H       8.357126      6.426652     -0.884294
  H       8.359148      6.425867      0.894756
  C       4.247408      0.005293      0.000069
  H       9.950429     -7.288043     -0.011486
  H       7.065522      7.266267      0.007061
  C       2.821725      0.006250      0.000155
  C       2.098345     -1.207100     -0.026231
  C       0.708294     -1.205940     -0.026298
  C      -0.010828      0.007844      0.000149
  C       0.709640      1.220907      0.026632
  C       2.099585      1.220396      0.026604
  H      -3.729805      0.011363      0.000138
  H       0.162122      2.164869      0.047653
  H       2.644831     -2.151614     -0.047263
  H       2.646650      2.164662      0.047708
  H       0.159786     -2.149317     -0.047298
  C      13.789982      0.030865     -0.006241
  C      14.563398     -1.152339     -0.033105
  C      15.951874     -1.094939     -0.034266
  C      16.621636      0.147027     -0.008504
  C      15.852075      1.329913      0.018385
  C      14.463678      1.273734      0.019439
  H      20.337203      0.302453     -0.011733
  H      16.361455      2.295067      0.038832
  H      14.057010     -2.119043     -0.053804
  H      13.878704      2.194834      0.040783
  H      16.537579     -2.015637     -0.055623
  C      18.051053      0.206171     -0.009795
  C      19.265622      0.256760     -0.010806
  C      -1.441726      0.008893      0.000141
  C      -2.657216      0.010219      0.000143
