%chk=g09BDE
%NProcShared=8
#P bmk/6-31+g ! ASE formatted method and basis
opt freq

Gaussian input prepared by ASE

0 1
C                 5.5651734400        0.0797518100        0.0019392400
C                 1.4200000000        0.0000000000        0.0000000000
C                 2.0516257400       -1.2345030700        0.0006294900
C                 3.4535769000       -1.1538140900        0.0014402600
C                 4.1354453200        0.0846772200        0.0015464900
C                 3.4204731900        1.3129578300        0.0010930700
C                 2.0132037600        1.2427882500        0.0002312500
H                 4.0538208600       -2.0654096600        0.0019004000
H                 1.4117378100        2.1535271500       -0.0002415700
C                 1.2683724100       -2.5364430100        0.0006445600
H                 0.5951207300       -2.5322362400       -0.8760846800
H                 0.5976112700       -2.5336916100        0.8793160300
C                 2.0921884000       -3.8267693700       -0.0014753000
H                 2.7554219200       -3.8450358600       -0.8859626100
H                 2.7562261000       -3.8474077500        0.8823584300
C                 1.2193031100       -5.0873710100       -0.0026743200
H                 0.5529603100       -5.0696499100        0.8797900700
H                 0.5530270200       -5.0680040000       -0.8851540600
C                 2.0335786100       -6.3835928600       -0.0038715700
H                 2.6837352800       -6.4491569600        0.8856607300
H                 2.6842701900       -6.4471644200       -0.8931578800
C                 4.1731030900        2.6294104900        0.0013741600
H                 4.8495171000        2.6388977400        0.8761117200
H                 4.8491035400        2.6395080000       -0.8736933500
C                 3.3299875200        3.9072279000        0.0020001300
H                 2.6667681300        3.9200977800       -0.8826898100
H                 2.6663383600        3.9189539500        0.8863805200
C                 4.1864854300        5.1793242000        0.0029811400
H                 4.8525771600        5.1683763800        0.8856905600
H                 4.8533343700        5.1692201700       -0.8791648800
C                 3.3561018200        6.4652108200        0.0032599100
H                 2.7043366400        6.5211454800        0.8922791300
H                 2.7054663000        6.5222747900       -0.8865146900
C                 6.7870874700        0.0650309900        0.0001382900
H                 1.3801251500       -7.2710893900       -0.0050739300
H                 3.9982247200        7.3609467400        0.0042432100
C                 8.2154886500        0.0435880900        0.0000952000
C                 8.9162654500       -1.1823279400        0.0000678700
C                10.3107813000       -1.1989127700        0.0000410300
C                11.0326880100        0.0000000000       -0.0000000000
C                10.3483587500        1.2208537200       -0.0000220300
C                 8.9540465300        1.2471563600       -0.0000000000
H                12.1250744100       -0.0172144700       -0.0000257600
H                10.9058658300        2.1606788600       -0.0000637300
H                 8.3516145900       -2.1166057900        0.0000804900
H                 8.4187020700        2.1985588800       -0.0000332800
H                10.8391922800       -2.1554101200        0.0000342500
C                 0.0000000000        0.0000000000        0.0000000000
C                -1.2845567100        0.0076836600        0.0050301100
C                -6.9059773700       -0.0836323300        0.0046838200
C                -2.6778618500        0.0100998900        0.0047963300
C                -3.4234854000        1.2455395500        0.0000000000
C                -4.8059811800        1.1591007600        0.0003346800
C                -5.4904495700       -0.0855398500        0.0049754500
C                -4.7609038800       -1.3192300700        0.0097741000
C                -3.3806580000       -1.2358718400        0.0094575800
H                -5.4125697200        2.0643473700       -0.0031245700
H                -2.7704179400       -2.1384538200        0.0128639900
C                -2.6814903600        2.5627980900       -0.0050990400
H                -2.0003834700        2.5650374200       -0.8749939200
H                -2.0007468400        2.5719559400        0.8650392200
C                -3.5311047000        3.8357943700       -0.0102652300
H                -4.1946006000        3.8431064200       -0.8950713400
H                -4.1945261800        3.8503024100        0.8745111300
C                -2.6772376000        5.1098645000       -0.0154811200
H                -2.0105092600        5.1036171200        0.8662694200
H                -2.0108520500        5.0966351300       -0.8974129200
C                -3.5116776000        6.3929722700       -0.0204132000
H                -4.1623872700        6.4518603400        0.8693017500
H                -4.1630618400        6.4445693500       -0.9100862300
C                -5.5120133300       -2.6350243300        0.0147787800
H                -6.1878726300       -2.6413470000        0.8899481200
H                -6.1876324100       -2.6481075800       -0.8605058600
C                -4.6648911500       -3.9100969000        0.0197977000
H                -4.0016414100       -3.9231950200       -0.8643188700
H                -4.0014219100       -3.9161398000        0.9038243800
C                -5.5190276300       -5.1838278000        0.0249876000
H                -6.1850154400       -5.1716987800        0.9078867700
H                -6.1855172900       -5.1785411400       -0.8575991700
C                -4.6840974100       -6.4667559600        0.0297414100
H                -4.0325013800       -6.5170842500        0.9189215200
H                -4.0334107100       -6.5242809500       -0.8596679500
C                -8.1314277300       -0.0659163700        0.0023866300
H                -2.8714179000        7.2898039600       -0.0243358100
H                -5.3238542400       -7.3639729900        0.0337048100
C                -9.5550334800       -0.0441159700        0.0015507300
C               -10.2527528400        1.1850054100       -0.0030276200
C               -11.6461822900        1.2010606500       -0.0037577200
C               -12.3657399500       -0.0000000000        0.0000000000
C               -11.6843131700       -1.2231921900        0.0045064000
C               -10.2911144000       -1.2507140200        0.0052690600
H               -13.4580260700        0.0173633500       -0.0005940400
H               -12.2438732500       -2.1613308900        0.0074346300
H                -9.6867289500        2.1182254100       -0.0059489400
H                -9.7547572800       -2.2013035100        0.0087618300
H               -12.1761857500        2.1562101600       -0.0072876300


