59
Coordinates from ORCA-job opt_EPRII E -1159.916608712093
  C      -4.058780     -0.114027     -0.000729
  C      -2.837067     -0.037217      0.000458
  C       2.839456      0.025128      0.001303
  C      -1.417730      0.016651      0.000204
  C      -0.712128      1.278604     -0.003269
  C       0.709687      1.211983     -0.002475
  C       1.411298      0.003549      0.000975
  C       0.702255     -1.241266      0.003983
  C      -0.691408     -1.190779      0.003621
  H       1.285445      2.137757     -0.004762
  H      -1.264663     -2.117693      0.006030
  C      -1.396749      2.512534     -0.007530
  H      -2.489374      2.477379     -0.008222
  C      -0.740034      3.860790     -0.011243
  H      -0.071952      3.959921      0.869257
  H      -0.065383      3.951892     -0.887544
  C      -1.737595      5.026485     -0.020436
  H      -2.392913      4.932401     -0.905600
  H      -2.399942      4.940503      0.860321
  C      -1.059047      6.397666     -0.024026
  H      -0.415065      6.523869     -0.911556
  H      -0.422198      6.532067      0.867440
  C       1.476339     -2.542840      0.007434
  H       2.155053     -2.543120     -0.866126
  H       2.153685     -2.539371      0.882056
  C       0.658132     -3.836796      0.009521
  H      -0.005723     -3.860159      0.893279
  H      -0.004355     -3.863766     -0.875166
  C       1.539543     -5.091841      0.012796
  H       2.206455     -5.070185     -0.869111
  H       2.204866     -5.066716      0.895810
  C       0.733887     -6.393511      0.014637
  H       0.084970     -6.463882     -0.875410
  H       0.082960     -6.460115      0.903504
  C       4.061356      0.051700      0.002498
  H      -1.799216      7.213950     -0.030767
  H       1.392930     -7.276874      0.017252
  C       5.489033      0.088671      0.002622
  C       6.175837      1.322543      0.001416
  C       7.570008      1.354492      0.001416
  C       8.304589      0.163225      0.002633
  C       7.634082     -1.065321      0.003864
  C       6.240226     -1.107100      0.003878
  H       9.396716      0.192185      0.002617
  H       8.202215     -1.998703      0.004810
  H       5.600673      2.250353      0.000473
  H       5.715229     -2.064211      0.004815
  H       8.088008      2.316597      0.000461
  C      -5.481361     -0.217167     -0.000792
  C      -6.291506      0.940362     -0.001962
  C      -7.681432      0.829777     -0.001873
  C      -8.291180     -0.430157     -0.000632
  C      -7.498648     -1.583951      0.000528
  C      -6.108081     -1.483701      0.000446
  H      -9.380565     -0.512687     -0.000545
  H      -7.968746     -2.570377      0.001498
  H      -5.815246      1.922629     -0.002861
  H      -5.488129     -2.382218      0.001345
  H      -8.294683      1.734189     -0.002759
59
Coordinates from ORCA-job opt_EPRII E -1159.917899337567
  C      -4.063742     -0.114246     -0.000700
  C      -2.839038     -0.039328      0.000510
  C       2.846557      0.026241      0.001409
  C      -1.417364      0.014185      0.000314
  C      -0.711654      1.278761     -0.003105
  C       0.713002      1.214479     -0.002288
  C       1.416150      0.003828      0.001134
  C       0.707072     -1.244163      0.004099
  C      -0.689432     -1.195333      0.003706
  H       1.284278      2.136446     -0.004560
  H      -1.258403     -2.118259      0.006059
  C      -1.400857      2.514019     -0.007398
  H      -2.487413      2.476961     -0.008119
  C      -0.746546      3.867643     -0.010981
  H      -0.084541      3.969014      0.865236
  H      -0.077186      3.960888     -0.882449
  C      -1.749870      5.033248     -0.020754
  H      -2.399827      4.938674     -0.901071
  H      -2.407692      4.946822      0.854562
  C      -1.072832      6.410314     -0.024106
  H      -0.433155      6.536622     -0.905680
  H      -0.441074      6.544823      0.861957
  C       1.483681     -2.547953      0.007560
  H       2.157414     -2.548926     -0.861743
  H       2.155955     -2.545251      0.877997
  C       0.662133     -3.843995      0.009558
  H       0.002588     -3.867168      0.888336
  H       0.004049     -3.870696     -0.870219
  C       1.543849     -5.103305      0.012846
  H       2.206103     -5.083216     -0.863995
  H       2.204409     -5.079836      0.890878
  C       0.734005     -6.407812      0.014586
  H       0.089476     -6.476035     -0.869754
  H       0.087357     -6.472353      0.897653
  C       4.071277      0.051929      0.002548
  H      -1.810495      7.219747     -0.031173
  H       1.387599     -7.286796      0.017198
  C       5.502146      0.088236      0.002617
  C       6.190797      1.325404      0.001449
  C       7.589091      1.357266      0.001371
  C       8.326066      0.161991      0.002469
  C       7.652502     -1.070223      0.003659
  C       6.254463     -1.111268      0.003746
  H       9.412632      0.190439      0.002394
  H       8.217314     -1.999070      0.004505
  H       5.618590      2.248683      0.000596
  H       5.731586     -2.063314      0.004642
  H       8.104752      2.314281      0.000448
  C      -5.489705     -0.215071     -0.000794
  C      -6.299280      0.947403     -0.002108
  C      -7.693548      0.839588     -0.002049
  C      -8.308119     -0.423228     -0.000700
  C      -7.514858     -1.582190      0.000586
  C      -6.120014     -1.484035      0.000533
  H      -9.392100     -0.503284     -0.000642
  H      -7.984428     -2.562677      0.001637
  H      -5.823219      1.923718     -0.003105
  H      -5.504625     -2.379106      0.001531
  H      -8.301839      1.740586     -0.003038
59
Coordinates from ORCA-job opt_EPRII E -1159.917955610897
  C      -4.063622     -0.115261     -0.000552
  C      -2.838345     -0.041740      0.000625
  C       2.848426      0.027923      0.001538
  C      -1.416164      0.012059      0.000432
  C      -0.711431      1.277511     -0.002924
  C       0.713827      1.215859     -0.002091
  C       1.417523      0.004826      0.001265
  C       0.709687     -1.244251      0.004159
  C      -0.687517     -1.197673      0.003767
  H       1.283392      2.138565     -0.004316
  H      -1.254857     -2.121257      0.006070
  C      -1.403092      2.512227     -0.007220
  H      -2.489229      2.474406     -0.008000
  C      -0.748753      3.867463     -0.010696
  H      -0.089700      3.970143      0.866381
  H      -0.081184      3.961631     -0.882216
  C      -1.755967      5.031593     -0.021403
  H      -2.403586      4.936803     -0.902421
  H      -2.412689      4.945298      0.853750
  C      -1.078436      6.410579     -0.024547
  H      -0.439027      6.535822     -0.905699
  H      -0.448132      6.544324      0.861902
  C       1.488291     -2.547976      0.007560
  H       2.160047     -2.549353     -0.862238
  H       2.158492     -2.545815      0.878563
  C       0.663454     -3.843590      0.009404
  H       0.005319     -3.866538      0.888287
  H       0.006879     -3.869923     -0.870555
  C       1.545984     -5.104074      0.012637
  H       2.206664     -5.085187     -0.864410
  H       2.204855     -5.081964      0.890968
  C       0.732489     -6.408564      0.014203
  H       0.088746     -6.474288     -0.870145
  H       0.086499     -6.470755      0.897166
  C       4.073654      0.052513      0.002661
  H      -1.817035      7.218455     -0.032240
  H       1.385040     -7.287665      0.016787
  C       5.505203      0.087987      0.002726
  C       6.194155      1.325710      0.001718
  C       7.593376      1.356889      0.001639
  C       8.330466      0.160345      0.002580
  C       7.655607     -1.072459      0.003615
  C       6.256616     -1.112801      0.003702
  H       9.416659      0.188246      0.002505
  H       8.219837     -2.001233      0.004341
  H       5.622436      2.248893      0.000989
  H       5.733322     -2.064238      0.004479
  H       8.109468      2.313259      0.000839
  C      -5.490379     -0.214457     -0.000618
  C      -6.298192      0.949981     -0.001961
  C      -7.693517      0.843926     -0.001870
  C      -8.310288     -0.419089     -0.000458
  C      -7.517764     -1.579933      0.000859
  C      -6.121880     -1.483511      0.000776
  H      -9.393984     -0.497770     -0.000376
  H      -7.988563     -2.559426      0.001959
  H      -5.820845      1.925290     -0.003013
  H      -5.507656     -2.378972      0.001798
  H      -8.300541      1.745336     -0.002880
59
Coordinates from ORCA-job opt_EPRII E -1159.917970527012
  C      -4.063483     -0.115727     -0.000276
  C      -2.838084     -0.043684      0.000845
  C       2.848391      0.029552      0.001767
  C      -1.415758      0.010552      0.000639
  C      -0.712054      1.276532     -0.002664
  C       0.713343      1.216968     -0.001803
  C       1.417320      0.005942      0.001479
  C       0.710809     -1.243741      0.004263
  C      -0.686661     -1.199002      0.003884
  H       1.281617      2.140462     -0.003950
  H      -1.252817     -2.123272      0.006120
  C      -1.405405      2.510597     -0.006954
  H      -2.491504      2.472413     -0.007750
  C      -0.750876      3.866591     -0.010346
  H      -0.094305      3.970283      0.868228
  H      -0.084214      3.961146     -0.882259
  C      -1.760559      5.029493     -0.022384
  H      -2.406157      4.934541     -0.904734
  H      -2.416936      4.943625      0.852939
  C      -1.082582      6.409424     -0.025332
  H      -0.442824      6.533358     -0.906388
  H      -0.453530      6.542386      0.862097
  C       1.491506     -2.546972      0.007536
  H       2.161947     -2.548083     -0.863073
  H       2.160282     -2.544785      0.879432
  C       0.665962     -3.843040      0.009142
  H       0.008873     -3.866744      0.888629
  H       0.010521     -3.869860     -0.871489
  C       1.550381     -5.103038      0.012222
  H       2.209968     -5.084245     -0.865511
  H       2.208049     -5.081310      0.891326
  C       0.735887     -6.408107      0.013520
  H       0.092672     -6.472369     -0.871305
  H       0.090303     -6.469122      0.896847
  C       4.073687      0.052612      0.002884
  H      -1.822157      7.216476     -0.033929
  H       1.389089     -7.286784      0.016005
  C       5.505446      0.086917      0.002962
  C       6.194894      1.324364      0.001899
  C       7.594305      1.354367      0.001827
  C       8.330613      0.157070      0.002827
  C       7.654649     -1.075379      0.003914
  C       6.255452     -1.114714      0.003994
  H       9.416861      0.184134      0.002757
  H       8.218350     -2.004545      0.004685
  H       5.623805      2.247960      0.001123
  H       5.731397     -2.065755      0.004811
  H       8.111382      2.310277      0.000986
  C      -5.490556     -0.213331     -0.000293
  C      -6.296467      0.952404     -0.001401
  C      -7.692089      0.847997     -0.001264
  C      -8.310519     -0.414455     -0.000043
  C      -7.519283     -1.576449      0.001038
  C      -6.123099     -1.481847      0.000909
  H      -9.394343     -0.491835      0.000074
  H      -7.991545     -2.555305      0.001988
  H      -5.817822      1.927099     -0.002308
  H      -5.509883     -2.378024      0.001748
  H      -8.298210      1.750085     -0.002090
59
Coordinates from ORCA-job opt_EPRII E -1159.917974187324
  C      -4.063396     -0.115937      0.000020
  C      -2.838017     -0.044963      0.001057
  C       2.847977      0.030691      0.002010
  C      -1.415716      0.009746      0.000808
  C      -0.712720      1.276003     -0.002420
  C       0.712653      1.217465     -0.001508
  C       1.416889      0.006645      0.001683
  C       0.711180     -1.243289      0.004333
  C      -0.686305     -1.199490      0.003964
  H       1.280238      2.141403     -0.003552
  H      -1.251852     -2.124181      0.006130
  C      -1.406858      2.509659     -0.006712
  H      -2.492968      2.471325     -0.007533
  C      -0.752417      3.865894     -0.010004
  H      -0.097473      3.970209      0.869737
  H      -0.085585      3.960360     -0.881808
  C      -1.762870      5.028289     -0.023561
  H      -2.407014      4.933076     -0.906992
  H      -2.419696      4.942849      0.851518
  C      -1.084900      6.408535     -0.026305
  H      -0.444418      6.531628     -0.907013
  H      -0.456963      6.541290      0.862005
  C       1.492926     -2.546080      0.007468
  H       2.162860     -2.546798     -0.863544
  H       2.161078     -2.543763      0.879857
  C       0.667891     -3.842668      0.008821
  H       0.011261     -3.867090      0.888674
  H       0.012980     -3.869900     -0.872235
  C       1.553403     -5.102030      0.011717
  H       2.212547     -5.082938     -0.866395
  H       2.210540     -5.080321      0.891271
  C       0.739207     -6.407596      0.012737
  H       0.096273     -6.471326     -0.872392
  H       0.093812     -6.468401      0.896277
  C       4.073223      0.052514      0.003139
  H      -1.824977      7.215208     -0.035957
  H       1.393147     -7.285804      0.015094
  C       5.505019      0.086039      0.003253
  C       6.194945      1.323093      0.002572
  C       7.594280      1.352245      0.002537
  C       8.329845      0.154642      0.003193
  C       7.653296     -1.077329      0.003901
  C       6.254164     -1.115980      0.003946
  H       9.416170      0.181121      0.003151
  H       8.216669     -2.006782      0.004406
  H       5.624327      2.247041      0.002061
  H       5.729605     -2.066805      0.004470
  H       8.112081      2.307847      0.001991
  C      -5.490556     -0.212563      0.000087
  C      -6.295369      0.953783     -0.001001
  C      -7.690976      0.850373     -0.000759
  C      -8.310268     -0.411506      0.000550
  C      -7.520014     -1.574005      0.001612
  C      -6.123843     -1.480564      0.001380
  H      -9.394213     -0.488087      0.000751
  H      -7.993233     -2.552481      0.002633
  H      -5.815959      1.928161     -0.001970
  H      -5.511272     -2.377242      0.002210
  H      -8.296600      1.752885     -0.001568
59
Coordinates from ORCA-job opt_EPRII E -1159.917975492334
  C      -4.063411     -0.116031      0.000381
  C      -2.838031     -0.045851      0.001359
  C       2.847796      0.031502      0.002314
  C      -1.415755      0.009274      0.001097
  C      -0.713197      1.275735     -0.002065
  C       0.712165      1.217650     -0.001116
  C       1.416713      0.007055      0.001976
  C       0.711436     -1.243044      0.004484
  C      -0.686037     -1.199693      0.004134
  H       1.279389      2.141817     -0.003061
  H      -1.251249     -2.124614      0.006214
  C      -1.407695      2.509167     -0.006355
  H      -2.493810      2.470704     -0.007173
  C      -0.753515      3.865509     -0.009553
  H      -0.099756      3.970330      0.871050
  H      -0.085896      3.959684     -0.880810
  C      -1.764099      5.027728     -0.024790
  H      -2.407067      4.932102     -0.909065
  H      -2.421827      4.942656      0.849684
  C      -1.086359      6.408106     -0.027337
  H      -0.444946      6.530732     -0.907455
  H      -0.459509      6.541123      0.861725
  C       1.493589     -2.545562      0.007443
  H       2.163440     -2.545935     -0.863660
  H       2.161560     -2.543208      0.879998
  C       0.669127     -3.842482      0.008517
  H       0.012619     -3.867388      0.888486
  H       0.014369     -3.869833     -0.872689
  C       1.555057     -5.101488      0.011166
  H       2.214102     -5.082052     -0.867050
  H       2.212055     -5.079807      0.890861
  C       0.741313     -6.407351      0.011889
  H       0.098485     -6.470913     -0.873353
  H       0.095991     -6.468371      0.895491
  C       4.073016      0.052379      0.003430
  H      -1.826669      7.214571     -0.038164
  H       1.395680     -7.285258      0.014067
  C       5.504808      0.085475      0.003548
  C       6.195098      1.322267      0.002863
  C       7.594370      1.350944      0.002826
  C       8.329483      0.153179      0.003482
  C       7.652617     -1.078498      0.004192
  C       6.253539     -1.116733      0.004239
  H       9.415843      0.179317      0.003437
  H       8.215781     -2.008107      0.004693
  H       5.624765      2.246411      0.002350
  H       5.728701     -2.067423      0.004764
  H       8.112575      2.306356      0.002279
  C      -5.490595     -0.212094      0.000500
  C      -6.294857      0.954567     -0.000327
  C      -7.690441      0.851753     -0.000037
  C      -8.310216     -0.409774      0.001060
  C      -7.520554     -1.572552      0.001857
  C      -6.124408     -1.479767      0.001574
  H      -9.394221     -0.485887      0.001299
  H      -7.994313     -2.550796      0.002709
  H      -5.815023      1.928756     -0.001133
  H      -5.512229     -2.376732      0.002199
  H      -8.295757      1.754502     -0.000643
