37
Coordinates from ORCA-job opt E -621.833960653963
  C      -2.818573      0.051745      0.000055
  C       1.393659      0.000000      0.000000
  C       0.714960      1.237147     -0.000000
  C      -0.672358      1.202059     -0.000217
  C      -1.393659     -0.000000     -0.000000
  C      -0.714822     -1.237125      0.000202
  C       0.672385     -1.202227      0.000465
  H      -1.234707      2.125148     -0.000887
  H       1.234543     -2.125420      0.000501
  C       1.500316      2.530052      0.003117
  H       2.148685      2.534853      0.886733
  C       0.693094      3.826397     -0.031015
  H       0.055703      3.845082     -0.922042
  H       0.018245      3.868977      0.831235
  C       1.582505      5.071449     -0.027653
  H       2.223927      5.053627      0.860219
  H       2.257870      5.035325     -0.889591
  C       0.790682      6.377272     -0.056776
  H       0.133172      6.461776      0.812750
  H       0.163563      6.440674     -0.950268
  C      -1.500315     -2.530072     -0.001108
  H      -2.169550     -2.525019      0.866666
  H      -2.169751     -2.522131     -0.868668
  C      -0.693122     -3.826648     -0.003657
  H      -0.035552     -3.855138     -0.879752
  H      -0.038107     -3.859801      0.874098
  C      -1.582598     -5.071540     -0.008963
  H      -2.244242     -5.046953      0.863949
  H      -2.238133     -5.042350     -0.886170
  C      -0.790535     -6.377632     -0.009557
  H      -0.152401     -6.454678      0.874998
  H      -0.143909     -6.448783     -0.888409
  C      -4.021148      0.107043     -0.002842
  H      -5.082515      0.153992     -0.004083
  H       1.454567      7.243811     -0.055741
  H      -1.454541     -7.244044     -0.015654
  H       2.456065      0.000000      0.000000
37
Coordinates from ORCA-job opt E -621.844198754288
  C      -2.887407      0.013454      0.013164
  C       1.340429      0.031805      0.047520
  C       0.643762      1.260649      0.055695
  C      -0.756061      1.208699      0.037786
  C      -1.455533     -0.010303      0.022878
  C      -0.749355     -1.240808      0.017176
  C       0.647118     -1.181238      0.029067
  H      -1.339187      2.128611      0.040369
  H       1.229629     -2.102498      0.023877
  C       1.407894      2.537420      0.079599
  H       2.157626      2.524588      0.889549
  C       0.676982      3.865813      0.013881
  H       0.002184      3.884165     -0.860835
  H       0.030145      3.971633      0.906734
  C       1.627392      5.068582     -0.059208
  H       2.303490      5.050743      0.814221
  H       2.274558      4.965922     -0.947372
  C       0.895644      6.412022     -0.110711
  H       0.267883      6.560883      0.783662
  H       0.235732      6.474234     -0.991721
  C      -1.515644     -2.549160     -0.002563
  H      -2.197745     -2.562601      0.866197
  H      -2.184227     -2.543412     -0.881856
  C      -0.687021     -3.835922     -0.010474
  H      -0.016816     -3.846035     -0.888384
  H      -0.033154     -3.867262      0.879196
  C      -1.558538     -5.096666     -0.034147
  H      -2.232871     -5.089943      0.840778
  H      -2.213360     -5.069246     -0.923328
  C      -0.743465     -6.392077     -0.040287
  H      -0.105389     -6.467402      0.855667
  H      -0.083385     -6.445162     -0.921782
  C      -4.101261      0.045309      0.002082
  H      -5.172747      0.071848     -0.006457
  H       1.604313      7.252405     -0.164638
  H      -1.397666     -7.276956     -0.059459
  H       2.429452      0.044772      0.056057
37
Coordinates from ORCA-job opt E -621.849832922528
  C      -2.914298      0.000480      0.006502
  C       1.316637      0.053262      0.090634
  C       0.613791      1.280892      0.097450
  C      -0.794384      1.220823      0.059672
  C      -1.479529     -0.006841      0.030912
  C      -0.760900     -1.234866      0.026882
  C       0.640916     -1.164130      0.055839
  H      -1.386213      2.138091      0.061095
  H       1.229567     -2.083880      0.051338
  C       1.353229      2.534139      0.133148
  H       2.202233      2.507101      0.837170
  C       0.665231      3.870049      0.065405
  H      -0.061824      3.882999     -0.769874
  H       0.068919      4.016013      0.993893
  C       1.638586      5.047811     -0.092186
  H       2.363453      5.034819      0.744836
  H       2.233745      4.903631     -1.013053
  C       0.935115      6.406966     -0.139204
  H       0.359930      6.594430      0.785689
  H       0.226782      6.462832     -0.985507
  C      -1.519273     -2.548322     -0.008401
  H      -2.213809     -2.570052      0.853776
  H      -2.180153     -2.542050     -0.896826
  C      -0.682938     -3.831104     -0.012919
  H      -0.000670     -3.832571     -0.884916
  H      -0.037392     -3.862753      0.886037
  C      -1.546524     -5.097815     -0.052337
  H      -2.232723     -5.098841      0.816731
  H      -2.193429     -5.069962     -0.950558
  C      -0.722587     -6.388310     -0.055128
  H      -0.092308     -6.463955      0.849372
  H      -0.050428     -6.433370     -0.931113
  C      -4.131586      0.018271     -0.016964
  H      -5.204814      0.032777     -0.036548
  H       1.659251      7.230860     -0.255120
  H      -1.370789     -7.280258     -0.085710
  H       2.412590      0.069704      0.111916
37
Coordinates from ORCA-job opt E -621.853765016082
  C      -2.925232     -0.008230     -0.010932
  C       1.302143      0.061817      0.128062
  C       0.598317      1.293501      0.128305
  C      -0.815430      1.225022      0.070856
  C      -1.490221     -0.006122      0.030227
  C      -0.767467     -1.233126      0.032008
  C       0.635950     -1.157266      0.080025
  H      -1.411481      2.138712      0.068937
  H       1.224589     -2.076507      0.080024
  C       1.320311      2.533702      0.172320
  H       2.255336      2.496130      0.750984
  C       0.658500      3.876854      0.119922
  H      -0.123984      3.888295     -0.663117
  H       0.124875      4.054790      1.081946
  C       1.638095      5.035212     -0.123815
  H       2.415316      5.024405      0.664534
  H       2.169549      4.861426     -1.077713
  C       0.954723      6.404367     -0.152223
  H       0.443570      6.618703      0.803481
  H       0.193695      6.456491     -0.951537
  C      -1.521743     -2.547671     -0.016090
  H      -2.227862     -2.573357      0.836539
  H      -2.172001     -2.541428     -0.912245
  C      -0.681794     -3.827837     -0.012725
  H       0.011682     -3.824882     -0.875736
  H      -0.047355     -3.859114      0.893951
  C      -1.540192     -5.097390     -0.065188
  H      -2.237231     -5.101959      0.795033
  H      -2.176393     -5.069773     -0.970806
  C      -0.711949     -6.384611     -0.060225
  H      -0.092267     -6.459846      0.851380
  H      -0.028798     -6.425884     -0.927670
  C      -4.141769      0.001220     -0.048511
  H      -5.214472      0.008818     -0.080752
  H       1.681827      7.213881     -0.331071
  H      -1.355343     -7.279403     -0.100277
  H       2.397911      0.077930      0.164034
37
Coordinates from ORCA-job opt E -621.856652818159
  C      -2.929365     -0.012895     -0.034937
  C       1.293615      0.063990      0.160614
  C       0.590478      1.300779      0.151192
  C      -0.826719      1.224652      0.075843
  C      -1.494989     -0.006596      0.024967
  C      -0.771835     -1.233811      0.034999
  C       0.631326     -1.155164      0.102501
  H      -1.424762      2.136198      0.068702
  H       1.218398     -2.074477      0.109681
  C       1.301035      2.535313      0.201523
  H       2.304899      2.491066      0.642019
  C       0.655634      3.885949      0.175279
  H      -0.181051      3.899008     -0.547809
  H       0.192173      4.090057      1.167460
  C       1.630529      5.027375     -0.153835
  H       2.459751      5.015876      0.578249
  H       2.091885      4.832040     -1.138981
  C       0.964571      6.404588     -0.155048
  H       0.524066      6.638671      0.829822
  H       0.150857      6.456255     -0.899730
  C      -1.523493     -2.548438     -0.023849
  H      -2.240795     -2.576055      0.818665
  H      -2.162388     -2.543078     -0.927422
  C      -0.681732     -3.827029     -0.010509
  H       0.022476     -3.822055     -0.863994
  H      -0.058972     -3.857558      0.903439
  C      -1.536706     -5.098098     -0.074080
  H      -2.244016     -5.104020      0.776869
  H      -2.161691     -5.071108     -0.986637
  C      -0.706425     -6.383386     -0.059526
  H      -0.097854     -6.457825      0.858819
  H      -0.012912     -6.423145     -0.917992
  C      -4.144214     -0.007719     -0.088327
  H      -5.215827     -0.003421     -0.134842
  H       1.687025      7.201235     -0.395462
  H      -1.346572     -7.279334     -0.107619
  H       2.387004      0.079030      0.211894
37
Coordinates from ORCA-job opt E -621.858514491637
  C      -2.931610     -0.013896     -0.059802
  C       1.288133      0.065511      0.195969
  C       0.585349      1.305761      0.174472
  C      -0.833559      1.223917      0.082664
  C      -1.498185     -0.006109      0.021830
  C      -0.775155     -1.234065      0.041273
  C       0.626836     -1.152993      0.129307
  H      -1.432293      2.134741      0.068552
  H       1.213172     -2.072319      0.145857
  C       1.288086      2.536407      0.230434
  H       2.341874      2.488157      0.525780
  C       0.656277      3.893679      0.231424
  H      -0.230788      3.908344     -0.427324
  H       0.267286      4.122227      1.248819
  C       1.618068      5.017699     -0.185235
  H       2.497395      5.005311      0.484741
  H       2.004369      4.802786     -1.197814
  C       0.970186      6.402987     -0.158362
  H       0.605194      6.655712      0.851949
  H       0.105817      6.455350     -0.842714
  C      -1.524235     -2.548879     -0.029046
  H      -2.252666     -2.579055      0.803471
  H      -2.151613     -2.543581     -0.940289
  C      -0.681208     -3.826441     -0.007159
  H       0.033480     -3.819003     -0.851454
  H      -0.069910     -3.857763      0.914017
  C      -1.533705     -5.098401     -0.083231
  H      -2.250816     -5.106606      0.759016
  H      -2.147937     -5.070262     -1.002573
  C      -0.702318     -6.382645     -0.061597
  H      -0.104313     -6.458139      0.863166
  H       0.000918     -6.420025     -0.911821
  C      -4.145013     -0.011152     -0.131562
  H      -5.215517     -0.008488     -0.194748
  H       1.682738      7.186841     -0.461181
  H      -1.340487     -7.279093     -0.118658
  H       2.379554      0.080356      0.263763
37
Coordinates from ORCA-job opt E -621.859335031169
  C      -2.934701     -0.014308     -0.083515
  C       1.282428      0.067730      0.230019
  C       0.579131      1.309506      0.196572
  C      -0.840297      1.223637      0.091223
  C      -1.502631     -0.005424      0.020306
  C      -0.778967     -1.233859      0.049545
  C       0.621314     -1.150176      0.156857
  H      -1.439355      2.134056      0.070582
  H       1.208150     -2.068934      0.184773
  C       1.277981      2.537582      0.262221
  H       2.361876      2.486194      0.411205
  C       0.659929      3.901085      0.282714
  H      -0.267287      3.917458     -0.317166
  H       0.338613      4.152489      1.317195
  C       1.605178      5.006854     -0.213552
  H       2.526368      4.992261      0.396843
  H       1.920620      4.774082     -1.246256
  C       0.977000      6.400666     -0.162738
  H       0.682162      6.670033      0.865832
  H       0.070811      6.455845     -0.789684
  C      -1.525010     -2.549285     -0.030738
  H      -2.261986     -2.582920      0.794078
  H      -2.143403     -2.543454     -0.947997
  C      -0.680256     -3.825673     -0.003871
  H       0.042167     -3.814982     -0.841399
  H      -0.077419     -3.858467      0.922649
  C      -1.530236     -5.098655     -0.090680
  H      -2.253669     -5.110665      0.745959
  H      -2.137487     -5.068293     -1.014424
  C      -0.697259     -6.381833     -0.067200
  H      -0.105746     -6.459382      0.861417
  H       0.011947     -6.415544     -0.912470
  C      -4.146748     -0.014074     -0.174071
  H      -5.216006     -0.013038     -0.254481
  H       1.677765      7.171674     -0.521211
  H      -1.333856     -7.278790     -0.131543
  H       2.372285      0.083473      0.314941
37
Coordinates from ORCA-job opt E -621.859411329603
  C      -2.939779     -0.017392     -0.082911
  C       1.277183      0.070059      0.237785
  C       0.571597      1.310023      0.205410
  C      -0.846828      1.222904      0.098840
  C      -1.508164     -0.006914      0.024851
  C      -0.782596     -1.234294      0.054475
  C       0.617040     -1.148634      0.163372
  H      -1.446843      2.132753      0.077482
  H       1.205917     -2.066144      0.192415
  C       1.271091      2.539973      0.277485
  H       2.359149      2.486295      0.397150
  C       0.658071      3.906307      0.288336
  H      -0.269110      3.922748     -0.311980
  H       0.337739      4.165784      1.320941
  C       1.608080      5.004597     -0.215470
  H       2.530227      4.988688      0.393512
  H       1.920160      4.765302     -1.247780
  C       0.986857      6.401913     -0.170505
  H       0.693962      6.677075      0.857144
  H       0.080627      6.458582     -0.797238
  C      -1.526510     -2.550851     -0.027292
  H      -2.262050     -2.587623      0.798715
  H      -2.146332     -2.544061     -0.943574
  C      -0.679575     -3.825920     -0.004612
  H       0.041246     -3.812265     -0.843500
  H      -0.074940     -3.859780      0.920726
  C      -1.527713     -5.100085     -0.092353
  H      -2.248465     -5.115754      0.746560
  H      -2.137869     -5.068215     -1.014168
  C      -0.692505     -6.382001     -0.075053
  H      -0.097597     -6.460864      0.851311
  H       0.013693     -6.412370     -0.922978
  C      -4.151636     -0.019206     -0.176841
  H      -5.220663     -0.019745     -0.260569
  H       1.691151      7.167827     -0.533025
  H      -1.328089     -7.279706     -0.139374
  H       2.366876      0.087868      0.324644
37
Coordinates from ORCA-job opt E -621.859433083600
  C      -2.943649     -0.019403     -0.077163
  C       1.273860      0.072285      0.241028
  C       0.566023      1.310006      0.210656
  C      -0.851183      1.223004      0.104920
  C      -1.512152     -0.007722      0.030138
  C      -0.784851     -1.234005      0.058565
  C       0.614582     -1.147242      0.166119
  H      -1.451967      2.132628      0.083825
  H       1.205430     -2.063721      0.193648
  C       1.265552      2.541148      0.286425
  H       2.354263      2.485272      0.401393
  C       0.654701      3.908497      0.283940
  H      -0.264889      3.923560     -0.328730
  H       0.321438      4.171812      1.311625
  C       1.612891      5.003162     -0.212014
  H       2.528225      4.986995      0.407452
  H       1.935656      4.760637     -1.240436
  C       0.994178      6.402071     -0.177782
  H       0.689199      6.680028      0.845722
  H       0.095732      6.459073     -0.815931
  C      -1.527479     -2.551515     -0.023230
  H      -2.260118     -2.590831      0.805394
  H      -2.150328     -2.543549     -0.937550
  C      -0.678930     -3.825633     -0.005746
  H       0.039316     -3.809433     -0.846952
  H      -0.071355     -3.860760      0.917782
  C      -1.525924     -5.100615     -0.093305
  H      -2.243246     -5.119408      0.748635
  H      -2.139882     -5.067215     -1.012716
  C      -0.689048     -6.381634     -0.082569
  H      -0.089886     -6.461804      0.841102
  H       0.013408     -6.409225     -0.933847
  C      -4.155709     -0.022750     -0.170757
  H      -5.224872     -0.024462     -0.254509
  H       1.704554      7.165656     -0.533587
  H      -1.324103     -7.279926     -0.146051
  H       2.363969      0.091888      0.326440
37
Coordinates from ORCA-job opt E -621.859439402492
  C      -2.945201     -0.020146     -0.072870
  C       1.273037      0.073066      0.240313
  C       0.564048      1.309620      0.210767
  C      -0.852585      1.223234      0.106308
  C      -1.513641     -0.008006      0.032395
  C      -0.785503     -1.233701      0.060102
  C       0.614023     -1.146834      0.165936
  H      -1.453701      2.132764      0.085603
  H       1.205797     -2.062854      0.192240
  C       1.263340      2.541396      0.286968
  H       2.351776      2.484333      0.404309
  C       0.652431      3.908558      0.276998
  H      -0.259622      3.922503     -0.347305
  H       0.306036      4.171371      1.300629
  C       1.616161      5.003428     -0.207265
  H       2.524511      4.987035      0.422564
  H       1.950395      4.761549     -1.232258
  C       0.997008      6.402381     -0.179487
  H       0.679743      6.679592      0.840549
  H       0.106178      6.459724     -0.828433
  C      -1.527856     -2.551671     -0.020544
  H      -2.258044     -2.591875      0.810311
  H      -2.153253     -2.543213     -0.933189
  C      -0.678713     -3.825443     -0.006139
  H       0.037716     -3.808181     -0.848981
  H      -0.069080     -3.861223      0.916120
  C      -1.525398     -5.100711     -0.092917
  H      -2.240529     -5.120813      0.750962
  H      -2.141773     -5.066623     -1.010803
  C      -0.687902     -6.381422     -0.085663
  H      -0.086045     -6.462105      0.836322
  H       0.012149     -6.407958     -0.939059
  C      -4.157509     -0.024193     -0.164784
  H      -5.226845     -0.026377     -0.247322
  H       1.711642      7.166215     -0.526347
  H      -1.322889     -7.279937     -0.148109
  H       2.363502      0.093385      0.324015
37
Coordinates from ORCA-job opt E -621.859444004948
  C      -2.945644     -0.020376     -0.069773
  C       1.273340      0.073017      0.237449
  C       0.563864      1.309069      0.207952
  C      -0.852624      1.223341      0.105254
  C      -1.513974     -0.008157      0.033167
  C      -0.785519     -1.233563      0.060631
  C       0.614202     -1.146996      0.164544
  H      -1.453842      2.132838      0.084717
  H       1.206308     -2.062853      0.190241
  C       1.262873      2.541269      0.282630
  H       2.351071      2.483683      0.401680
  C       0.650774      3.907757      0.268590
  H      -0.253643      3.921116     -0.367062
  H       0.290933      4.167557      1.288444
  C       1.618703      5.004859     -0.201521
  H       2.519839      4.987887      0.438658
  H       1.964899      4.766016     -1.223302
  C       0.997753      6.403124     -0.177526
  H       0.668041      6.677380      0.839391
  H       0.114619      6.461237     -0.836972
  C      -1.528050     -2.551747     -0.018063
  H      -2.255789     -2.592041      0.814991
  H      -2.155987     -2.543188     -0.928985
  C      -0.678767     -3.825441     -0.005917
  H       0.036055     -3.807775     -0.850167
  H      -0.067353     -3.861603      0.915203
  C      -1.525513     -5.100758     -0.091539
  H      -2.238926     -5.121330      0.753834
  H      -2.143754     -5.066373     -1.008215
  C      -0.687867     -6.381419     -0.086446
  H      -0.083936     -6.462244      0.834223
  H       0.010286     -6.407687     -0.941454
  C      -4.158154     -0.024749     -0.159758
  H      -5.227634     -0.027039     -0.240899
  H       1.715752      7.168554     -0.513847
  H      -1.322976     -7.279978     -0.147690
  H       2.364042      0.093482      0.319472
37
Coordinates from ORCA-job opt E -621.859454305406
  C      -2.945690     -0.020552     -0.064333
  C       1.274821      0.072129      0.228240
  C       0.565039      1.307733      0.198140
  C      -0.851546      1.223242      0.100204
  C      -1.513721     -0.008520      0.033172
  C      -0.785153     -1.233637      0.060733
  C       0.615024     -1.147899      0.159942
  H      -1.452724      2.132770      0.079704
  H       1.207269     -2.063690      0.185183
  C       1.263572      2.540717      0.267473
  H       2.351642      2.482887      0.386908
  C       0.647827      3.905397      0.247909
  H      -0.238768      3.918844     -0.413029
  H       0.257274      4.155523      1.258961
  C       1.623709      5.009409     -0.186962
  H       2.507712      4.990256      0.476731
  H       1.997729      4.780150     -1.201195
  C       0.997621      6.405477     -0.168669
  H       0.639502      6.670541      0.841096
  H       0.132495      6.466270     -0.851498
  C      -1.528412     -2.552042     -0.012530
  H      -2.250569     -2.591720      0.825459
  H      -2.162139     -2.543803     -0.919433
  C      -0.679183     -3.825781     -0.004673
  H       0.032037     -3.807891     -0.852000
  H      -0.063850     -3.862406      0.913870
  C      -1.526371     -5.101025     -0.087039
  H      -2.236258     -5.121770      0.761340
  H      -2.148391     -5.066486     -1.001201
  C      -0.688768     -6.381768     -0.085518
  H      -0.080691     -6.462459      0.832480
  H       0.005518     -6.408215     -0.943707
  C      -4.158579     -0.025284     -0.149793
  H      -5.228329     -0.027420     -0.227687
  H       1.722123      7.175746     -0.479003
  H      -1.324270     -7.280288     -0.143772
  H       2.365903      0.092432      0.306429
37
Coordinates from ORCA-job opt E -621.859474520762
  C      -2.944690     -0.020326     -0.056540
  C       1.278207      0.069884      0.207949
  C       0.568780      1.305375      0.176306
  C      -0.848326      1.222722      0.087871
  C      -1.512154     -0.009072      0.030981
  C      -0.784081     -1.234171      0.059361
  C       0.616870     -1.149909      0.149421
  H      -1.448997      2.132562      0.066929
  H       1.208715     -2.065928      0.174786
  C       1.266775      2.539402      0.234428
  H       2.355254      2.482337      0.349152
  C       0.643895      3.900765      0.208922
  H      -0.208847      3.917452     -0.496231
  H       0.198498      4.130122      1.202131
  C       1.631094      5.018290     -0.158143
  H       2.481950      4.993312      0.547528
  H       2.056000      4.809248     -1.156740
  C       0.995196      6.409925     -0.147496
  H       0.585948      6.655793      0.847653
  H       0.164366      6.477323     -0.871267
  C      -1.528899     -2.552617     -0.002856
  H      -2.241030     -2.590199      0.843813
  H      -2.173012     -2.545688     -0.902376
  C      -0.680200     -3.826692     -0.001683
  H       0.024318     -3.809349     -0.854612
  H      -0.057680     -3.863477      0.912034
  C      -1.528502     -5.101622     -0.076947
  H      -2.232213     -5.121496      0.776600
  H      -2.157074     -5.067576     -0.986659
  C      -0.691391     -6.382714     -0.080361
  H      -0.076298     -6.462532      0.833057
  H      -0.003752     -6.410451     -0.943859
  C      -4.158159     -0.025220     -0.133653
  H      -5.228341     -0.026584     -0.205543
  H       1.729052      7.189566     -0.408277
  H      -1.327698     -7.281039     -0.132690
  H       2.369829      0.089452      0.278945
37
Coordinates from ORCA-job opt E -621.859528640477
  C      -2.940412     -0.018101     -0.045448
  C       1.286331      0.064964      0.161474
  C       0.578763      1.301069      0.126828
  C      -0.839518      1.221892      0.057475
  C      -1.506832     -0.009199      0.021608
  C      -0.780722     -1.235017      0.052414
  C       0.621569     -1.153856      0.123474
  H      -1.438455      2.132806      0.035143
  H       1.211775     -2.070811      0.150060
  C       1.276269      2.536326      0.163368
  H       2.366032      2.481713      0.263730
  C       0.639973      3.891648      0.131850
  H      -0.141828      3.922356     -0.652870
  H       0.092869      4.076392      1.082531
  C       1.639404      5.033174     -0.097289
  H       2.419751      4.991160      0.685220
  H       2.161130      4.866977     -1.057647
  C       0.985647      6.416313     -0.098338
  H       0.480129      6.621716      0.861228
  H       0.226592      6.501527     -0.895603
  C      -1.528952     -2.552820      0.013979
  H      -2.221739     -2.584267      0.876815
  H      -2.192784     -2.549758     -0.870993
  C      -0.682278     -3.828153      0.004636
  H       0.008476     -3.814269     -0.859484
  H      -0.045310     -3.863552      0.908405
  C      -1.533417     -5.102047     -0.053385
  H      -2.224769     -5.117616      0.810263
  H      -2.174896     -5.070696     -0.954125
  C      -0.698168     -6.384327     -0.063608
  H      -0.069598     -6.460926      0.840862
  H      -0.023587     -6.416862     -0.937143
  C      -4.154824     -0.022387     -0.105353
  H      -5.225756     -0.021416     -0.164603
  H       1.730124      7.212456     -0.259266
  H      -1.336354     -7.281963     -0.102474
  H       2.378770      0.082422      0.218200
37
Coordinates from ORCA-job opt E -621.859578962333
  C      -2.934617     -0.015504     -0.035370
  C       1.294566      0.061212      0.110501
  C       0.589098      1.298446      0.075587
  C      -0.830220      1.220914      0.024345
  C      -1.500120     -0.008844      0.009280
  C      -0.776173     -1.235889      0.041307
  C       0.627068     -1.156595      0.091678
  H      -1.427167      2.132958      0.001427
  H       1.215514     -2.074584      0.118319
  C       1.286046      2.534342      0.096536
  H       2.377360      2.484212      0.178085
  C       0.639830      3.885346      0.057222
  H      -0.063492      3.939715     -0.799109
  H      -0.001587      4.026791      0.953456
  C       1.641698      5.043157     -0.030870
  H       2.340851      4.979379      0.823861
  H       2.258624      4.916507     -0.939578
  C       0.973853      6.419068     -0.049429
  H       0.373328      6.585691      0.861767
  H       0.295845      6.524646     -0.914212
  C      -1.527383     -2.552327      0.027048
  H      -2.202063     -2.576553      0.904247
  H      -2.209570     -2.553899     -0.843743
  C      -0.683692     -3.829538      0.009095
  H      -0.008982     -3.821850     -0.867527
  H      -0.030412     -3.861586      0.901197
  C      -1.538491     -5.101742     -0.026542
  H      -2.215060     -5.110388      0.848708
  H      -2.195118     -5.074438     -0.916345
  C      -0.706361     -6.385918     -0.043096
  H      -0.062609     -6.458424      0.850882
  H      -0.046946     -6.425319     -0.927727
  C      -4.149698     -0.018772     -0.076208
  H      -5.221264     -0.015255     -0.120566
  H       1.720205      7.227348     -0.109291
  H      -1.346935     -7.282306     -0.065566
  H       2.387479      0.076869      0.152566
37
Coordinates from ORCA-job opt E -621.859595255050
  C      -2.933217     -0.014509     -0.031648
  C       1.296661      0.060395      0.102969
  C       0.591501      1.297690      0.068598
  C      -0.827980      1.220909      0.022985
  C      -1.498642     -0.008467      0.012140
  C      -0.775068     -1.235902      0.044028
  C       0.628382     -1.157089      0.089740
  H      -1.424250      2.133529     -0.002636
  H       1.216595     -2.075400      0.114835
  C       1.288579      2.533430      0.079305
  H       2.381345      2.483997      0.139595
  C       0.641121      3.883765      0.039657
  H      -0.043213      3.945071     -0.831960
  H      -0.020838      4.014693      0.922348
  C       1.641363      5.044618     -0.016119
  H       2.321094      4.976114      0.853740
  H       2.278945      4.926857     -0.911792
  C       0.970018      6.418825     -0.039024
  H       0.348299      6.576447      0.859519
  H       0.311508      6.529232     -0.918274
  C      -1.526923     -2.551933      0.032466
  H      -2.198790     -2.575812      0.911923
  H      -2.212070     -2.553249     -0.836108
  C      -0.683943     -3.829612      0.011790
  H      -0.011530     -3.821906     -0.866679
  H      -0.028290     -3.862455      0.902231
  C      -1.539641     -5.101269     -0.022379
  H      -2.214434     -5.109709      0.854317
  H      -2.198166     -5.073302     -0.910887
  C      -0.708378     -6.386015     -0.040996
  H      -0.062939     -6.459313      0.851808
  H      -0.050640     -6.425495     -0.926955
  C      -4.148422     -0.017487     -0.071665
  H      -5.220077     -0.013257     -0.115696
  H       1.715087      7.229797     -0.075706
  H      -1.349655     -7.282014     -0.062609
  H       2.390011      0.075693      0.139072
37
Coordinates from ORCA-job opt E -621.859605647107
  C      -2.933462     -0.014748     -0.030102
  C       1.296905      0.060086      0.093088
  C       0.591639      1.297271      0.059634
  C      -0.828012      1.220603      0.019809
  C      -1.498793     -0.008721      0.010906
  C      -0.775101     -1.236237      0.042179
  C       0.628453     -1.157342      0.083995
  H      -1.424133      2.133398     -0.005500
  H       1.216650     -2.075716      0.108756
  C       1.289156      2.533041      0.063830
  H       2.382919      2.483832      0.105702
  C       0.642448      3.883766      0.027044
  H      -0.028038      3.953193     -0.854907
  H      -0.033065      4.005839      0.900587
  C       1.642082      5.045922     -0.003719
  H       2.307614      4.972613      0.876449
  H       2.294104      4.935406     -0.889984
  C       0.969107      6.419438     -0.027690
  H       0.332671      6.569801      0.861713
  H       0.324869      6.535265     -0.916819
  C      -1.527017     -2.552159      0.033197
  H      -2.198535     -2.574781      0.912978
  H      -2.212639     -2.554731     -0.835049
  C      -0.684091     -3.829923      0.013871
  H      -0.012153     -3.823440     -0.864999
  H      -0.027937     -3.861538      0.904010
  C      -1.539916     -5.101552     -0.018361
  H      -2.214922     -5.108489      0.858208
  H      -2.198269     -5.074925     -0.907074
  C      -0.708837     -6.386464     -0.034715
  H      -0.064033     -6.458711      0.858657
  H      -0.050480     -6.427205     -0.920183
  C      -4.148785     -0.017628     -0.067621
  H      -5.220544     -0.013128     -0.109384
  H       1.713378      7.231774     -0.046480
  H      -1.350277     -7.282391     -0.055600
  H       2.390449      0.075449      0.125508
37
Coordinates from ORCA-job opt E -621.859613002994
  C      -2.933925     -0.015305     -0.028515
  C       1.296633      0.060047      0.082194
  C       0.591265      1.297244      0.050553
  C      -0.828557      1.220228      0.015710
  C      -1.499157     -0.009085      0.008971
  C      -0.775333     -1.236645      0.038240
  C       0.628289     -1.157436      0.075803
  H      -1.424679      2.133065     -0.007915
  H       1.216415     -2.075850      0.099730
  C       1.289005      2.532913      0.051247
  H       2.383230      2.484392      0.082039
  C       0.643177      3.884194      0.017204
  H      -0.016045      3.961466     -0.872694
  H      -0.042644      3.999108      0.883388
  C       1.642797      5.046722      0.007346
  H       2.296152      4.969023      0.896070
  H       2.306929      4.941825     -0.870627
  C       0.969225      6.419977     -0.017714
  H       0.320873      6.564864      0.863917
  H       0.337018      6.540652     -0.914748
  C      -1.527162     -2.552505      0.031260
  H      -2.199631     -2.573521      0.910278
  H      -2.211970     -2.556823     -0.837641
  C      -0.684175     -3.830281      0.014976
  H      -0.012310     -3.825864     -0.863926
  H      -0.027963     -3.859624      0.905107
  C      -1.539928     -5.102011     -0.014441
  H      -2.215557     -5.106640      0.861633
  H      -2.197644     -5.077696     -0.903641
  C      -0.708851     -6.386944     -0.026875
  H      -0.065291     -6.457264      0.867502
  H      -0.049292     -6.429621     -0.911324
  C      -4.149302     -0.017968     -0.062866
  H      -5.221157     -0.013346     -0.101362
  H       1.713037      7.232904     -0.021704
  H      -1.350246     -7.282891     -0.046672
  H       2.390181      0.075571      0.111431
37
Coordinates from ORCA-job opt E -621.859622239794
  C      -2.934819     -0.016379     -0.027506
  C       1.295789      0.060285      0.064970
  C       0.590233      1.297589      0.037303
  C      -0.829801      1.219623      0.008336
  C      -1.499872     -0.009705      0.003802
  C      -0.775831     -1.237324      0.029486
  C       0.627852     -1.157379      0.060895
  H      -1.425988      2.132491     -0.011974
  H       1.215913     -2.075847      0.082628
  C       1.287994      2.533078      0.036641
  H       2.382559      2.486108      0.057891
  C       0.643330      3.885228      0.007411
  H      -0.004149      3.973293     -0.890166
  H      -0.052546      3.991815      0.866176
  C       1.643717      5.047253      0.021490
  H       2.283119      4.963381      0.919618
  H       2.321393      4.948554     -0.846846
  C       0.970588      6.420736     -0.004024
  H       0.309523      6.559736      0.869043
  H       0.351669      6.547718     -0.909303
  C      -1.527371     -2.553137      0.024633
  H      -2.203281     -2.571165      0.900932
  H      -2.209003     -2.560797     -0.846798
  C      -0.684186     -3.830858      0.015549
  H      -0.011767     -3.830875     -0.862877
  H      -0.028543     -3.855300      0.906190
  C      -1.539678     -5.102847     -0.008326
  H      -2.216621     -5.102915      0.866695
  H      -2.196063     -5.083269     -0.898551
  C      -0.708423     -6.387666     -0.012854
  H      -0.067182     -6.453878      0.883430
  H      -0.046589     -6.434244     -0.895351
  C      -4.150268     -0.018553     -0.056279
  H      -5.222289     -0.013938     -0.088604
  H       1.714284      7.233645      0.008568
  H      -1.349580     -7.283774     -0.030232
  H       2.389294      0.076189      0.089938
37
Coordinates from ORCA-job opt E -621.859628303890
  C      -2.935532     -0.017309     -0.028442
  C       1.294995      0.060638      0.051205
  C       0.589291      1.298089      0.027730
  C      -0.830879      1.219108      0.002118
  C      -1.500431     -0.010195     -0.001539
  C      -0.776220     -1.237910      0.020628
  C       0.627488     -1.157198      0.047398
  H      -1.427026      2.132048     -0.015530
  H       1.215547     -2.075723      0.066227
  C       1.286792      2.533498      0.029077
  H       2.381494      2.488257      0.047544
  C       0.642531      3.886191      0.004590
  H      -0.001196      3.981413     -0.894953
  H      -0.056169      3.988276      0.861293
  C       1.644220      5.047226      0.030111
  H       2.277177      4.958857      0.932363
  H       2.328005      4.951464     -0.833761
  C       0.972428      6.421337      0.005686
  H       0.306384      6.557672      0.875393
  H       0.358897      6.552070     -0.902638
  C      -1.527445     -2.553686      0.016414
  H      -2.207845     -2.568964      0.889169
  H      -2.204833     -2.564453     -0.858372
  C      -0.684100     -3.831335      0.015106
  H      -0.011000     -3.836133     -0.862753
  H      -0.029139     -3.850610      0.906346
  C      -1.539373     -5.103545     -0.002864
  H      -2.217061     -5.099144      0.871535
  H      -2.195026     -5.088635     -0.893686
  C      -0.707911     -6.388193     -0.000183
  H      -0.068137     -6.450214      0.897412
  H      -0.044611     -6.438681     -0.881334
  C      -4.151027     -0.018923     -0.053120
  H      -5.223168     -0.014506     -0.080276
  H       1.716614      7.233643      0.025585
  H      -1.348819     -7.284503     -0.014494
  H       2.388492      0.076943      0.072949
37
Coordinates from ORCA-job opt E -621.859630796935
  C      -2.935601     -0.017547     -0.030825
  C       1.294874      0.060776      0.045465
  C       0.589192      1.298362      0.024745
  C      -0.831032      1.218890     -0.000685
  C      -1.500419     -0.010306     -0.005192
  C      -0.776213     -1.238167      0.015121
  C       0.627498     -1.157087      0.040372
  H      -1.426968      2.132003     -0.017203
  H       1.215548     -2.075681      0.057080
  C       1.286363      2.533811      0.029508
  H       2.381055      2.489719      0.049918
  C       0.641575      3.886462      0.008099
  H      -0.005967      3.983101     -0.888516
  H      -0.053671      3.988234      0.867582
  C       1.644123      5.047032      0.031359
  H       2.278886      4.957293      0.932291
  H       2.326133      4.950991     -0.833863
  C       0.973296      6.421561      0.008926
  H       0.309883      6.558286      0.880607
  H       0.356981      6.552433     -0.897476
  C      -1.527325     -2.553867      0.010175
  H      -2.211336     -2.567550      0.880091
  H      -2.201229     -2.566336     -0.867340
  C      -0.684013     -3.831538      0.014187
  H      -0.010435     -3.839671     -0.863284
  H      -0.029531     -3.847431      0.905846
  C      -1.539302     -5.103781      0.000238
  H      -2.216776     -5.096704      0.874778
  H      -2.195203     -5.091564     -0.890452
  C      -0.707810     -6.388383      0.006508
  H      -0.067935     -6.447828      0.904211
  H      -0.044581     -6.441358     -0.874549
  C      -4.151118     -0.018687     -0.054166
  H      -5.223320     -0.014492     -0.078903
  H       1.718032      7.233427      0.026306
  H      -1.348651     -7.284782     -0.005165
  H       2.388404      0.077248      0.066139
37
Coordinates from ORCA-job opt E -621.859631342568
  C      -2.935166     -0.017246     -0.032888
  C       1.295313      0.060651      0.045739
  C       0.589785      1.298332      0.025955
  C      -0.830449      1.218906     -0.000585
  C      -1.499978     -0.010143     -0.006372
  C      -0.775908     -1.238156      0.013452
  C       0.627794     -1.157123      0.039214
  H      -1.426108      2.132214     -0.017029
  H       1.215783     -2.075791      0.055050
  C       1.286786      2.533866      0.033043
  H       2.381427      2.490191      0.055741
  C       0.641216      3.886193      0.012891
  H      -0.011880      3.981090     -0.879853
  H      -0.049327      3.989324      0.876077
  C       1.643702      5.046978      0.028924
  H       2.283122      4.957953      0.926700
  H       2.321231      4.949586     -0.839644
  C       0.972891      6.421464      0.008098
  H       0.314322      6.559549      0.883246
  H       0.351342      6.550662     -0.894986
  C      -1.527122     -2.553741      0.007293
  H      -2.213093     -2.566958      0.875677
  H      -2.199092     -2.566540     -0.871721
  C      -0.683994     -3.831530      0.013546
  H      -0.010146     -3.841099     -0.863718
  H      -0.029795     -3.846201      0.905437
  C      -1.539482     -5.103659      0.001131
  H      -2.216314     -5.095805      0.876164
  H      -2.196052     -5.092055     -0.889094
  C      -0.708143     -6.388363      0.007758
  H      -0.067343     -6.447050      0.904868
  H      -0.045823     -6.442230     -0.873933
  C      -4.150683     -0.018079     -0.056829
  H      -5.222897     -0.014023     -0.081393
  H       1.717705      7.233365      0.019662
  H      -1.349094     -7.284712     -0.002416
  H       2.388872      0.077049      0.066731
