37
Coordinates from ORCA-job opt E -621.860273357152
  C      -2.935166     -0.017246     -0.032888
  C       1.295313      0.060651      0.045739
  C       0.589785      1.298332      0.025955
  C      -0.830449      1.218906     -0.000585
  C      -1.499978     -0.010143     -0.006372
  C      -0.775908     -1.238156      0.013452
  C       0.627794     -1.157123      0.039214
  H      -1.426108      2.132214     -0.017029
  H       1.215783     -2.075791      0.055050
  C       1.286786      2.533866      0.033043
  H       2.381427      2.490191      0.055741
  C       0.641216      3.886193      0.012891
  H      -0.011880      3.981090     -0.879853
  H      -0.049327      3.989324      0.876077
  C       1.643702      5.046978      0.028924
  H       2.283122      4.957953      0.926700
  H       2.321231      4.949586     -0.839644
  C       0.972891      6.421464      0.008098
  H       0.314322      6.559549      0.883246
  H       0.351342      6.550662     -0.894986
  C      -1.527122     -2.553741      0.007293
  H      -2.213093     -2.566958      0.875677
  H      -2.199092     -2.566540     -0.871721
  C      -0.683994     -3.831530      0.013546
  H      -0.010146     -3.841099     -0.863718
  H      -0.029795     -3.846201      0.905437
  C      -1.539482     -5.103659      0.001131
  H      -2.216314     -5.095805      0.876164
  H      -2.196052     -5.092055     -0.889094
  C      -0.708143     -6.388363      0.007758
  H      -0.067343     -6.447050      0.904868
  H      -0.045823     -6.442230     -0.873933
  C      -4.150683     -0.018079     -0.056829
  H      -5.222897     -0.014023     -0.081393
  H       1.717705      7.233365      0.019662
  H      -1.349094     -7.284712     -0.002416
  H       2.388872      0.077049      0.066731
37
Coordinates from ORCA-job opt E -621.860275734810
  C      -2.934073     -0.018766     -0.033821
  C       1.296326      0.061617      0.042355
  C       0.590316      1.299012      0.023646
  C      -0.830012      1.218758     -0.002083
  C      -1.498941     -0.010710     -0.008376
  C      -0.774370     -1.238300      0.010896
  C       0.629305     -1.156514      0.035978
  H      -1.426643      2.131592     -0.017243
  H       1.218068     -2.074806      0.050925
  C       1.286599      2.534948      0.031266
  H       2.380846      2.491530      0.052874
  C       0.640774      3.887237      0.012787
  H      -0.012358      3.982869     -0.879700
  H      -0.049610      3.989014      0.876092
  C       1.643397      5.048244      0.030137
  H       2.282865      4.958144      0.927400
  H       2.320748      4.952086     -0.838264
  C       0.972655      6.422996      0.011073
  H       0.314265      6.559972      0.886339
  H       0.351320      6.553366     -0.891860
  C      -1.525236     -2.553953      0.005144
  H      -2.211934     -2.565966      0.872443
  H      -2.196235     -2.567265     -0.874138
  C      -0.682959     -3.832515      0.013733
  H      -0.008492     -3.844031     -0.862466
  H      -0.029866     -3.846912      0.905937
  C      -1.540346     -5.103812      0.002012
  H      -2.217942     -5.093520      0.875899
  H      -2.195918     -5.092106     -0.888500
  C      -0.711165     -6.390340      0.011269
  H      -0.071581     -6.448752      0.909014
  H      -0.048195     -6.446330     -0.869486
  C      -4.149637     -0.020449     -0.056778
  H      -5.221734     -0.017269     -0.080213
  H       1.717399      7.235047      0.023638
  H      -1.353742     -7.285750      0.001613
  H       2.389514      0.078501      0.062394
