37
Coordinates from ORCA-job opt_EPRII E -621.921730192453
  C      -2.934073     -0.018766     -0.033821
  C       1.296326      0.061617      0.042355
  C       0.590316      1.299012      0.023646
  C      -0.830012      1.218758     -0.002083
  C      -1.498941     -0.010710     -0.008376
  C      -0.774370     -1.238300      0.010896
  C       0.629305     -1.156514      0.035978
  H      -1.426643      2.131592     -0.017243
  H       1.218068     -2.074806      0.050925
  C       1.286599      2.534948      0.031266
  H       2.380846      2.491530      0.052874
  C       0.640774      3.887237      0.012787
  H      -0.012358      3.982869     -0.879700
  H      -0.049610      3.989014      0.876092
  C       1.643397      5.048244      0.030137
  H       2.282865      4.958144      0.927400
  H       2.320748      4.952086     -0.838264
  C       0.972655      6.422996      0.011073
  H       0.314265      6.559972      0.886339
  H       0.351320      6.553366     -0.891860
  C      -1.525236     -2.553953      0.005144
  H      -2.211934     -2.565966      0.872443
  H      -2.196235     -2.567265     -0.874138
  C      -0.682959     -3.832515      0.013733
  H      -0.008492     -3.844031     -0.862466
  H      -0.029866     -3.846912      0.905937
  C      -1.540346     -5.103812      0.002012
  H      -2.217942     -5.093520      0.875899
  H      -2.195918     -5.092106     -0.888500
  C      -0.711165     -6.390340      0.011269
  H      -0.071581     -6.448752      0.909014
  H      -0.048195     -6.446330     -0.869486
  C      -4.149637     -0.020449     -0.056778
  H      -5.221734     -0.017269     -0.080213
  H       1.717399      7.235047      0.023638
  H      -1.353742     -7.285750      0.001613
  H       2.389514      0.078501      0.062394
37
Coordinates from ORCA-job opt_EPRII E -621.922618921536
  C      -2.941370     -0.018504     -0.033874
  C       1.297559      0.061241      0.041218
  C       0.589207      1.301888      0.022969
  C      -0.834442      1.221953     -0.002379
  C      -1.503896     -0.010657     -0.008649
  C      -0.778902     -1.241265      0.009994
  C       0.628367     -1.160049      0.034775
  H      -1.427920      2.130273     -0.017056
  H       1.213526     -2.074008      0.049163
  C       1.288237      2.540347      0.030528
  H       2.376456      2.497082      0.051437
  C       0.642823      3.897243      0.012474
  H      -0.004389      3.994393     -0.875499
  H      -0.041976      3.999687      0.871172
  C       1.649902      5.059456      0.030802
  H       2.284385      4.969245      0.922870
  H       2.322618      4.964145     -0.832283
  C       0.978987      6.439386      0.012151
  H       0.325067      6.575208      0.881699
  H       0.362440      6.569446     -0.885136
  C      -1.531109     -2.560088      0.004109
  H      -2.213021     -2.573077      0.866823
  H      -2.196451     -2.574919     -0.871245
  C      -0.684348     -3.839933      0.013681
  H      -0.014029     -3.851510     -0.857295
  H      -0.036081     -3.853450      0.901178
  C      -1.541870     -5.115748      0.002200
  H      -2.215147     -5.106317      0.870649
  H      -2.192337     -5.105900     -0.883455
  C      -0.708390     -6.405128      0.012699
  H      -0.073678     -6.460828      0.905034
  H      -0.049494     -6.459424     -0.862009
  C      -4.160945     -0.021710     -0.056609
  H      -5.226233     -0.019949     -0.079416
  H       1.720091      7.245551      0.025208
  H      -1.345651     -7.295972      0.003310
  H       2.385417      0.078764      0.060695
37
Coordinates from ORCA-job opt_EPRII E -621.922665411245
  C      -2.943848     -0.017446     -0.033989
  C       1.296864      0.060221      0.039361
  C       0.587935      1.301683      0.021669
  C      -0.836409      1.223427     -0.003151
  C      -1.505830     -0.009927     -0.009404
  C      -0.781756     -1.241335      0.008756
  C       0.626431     -1.161514      0.032970
  H      -1.428986      2.131962     -0.017339
  H       1.210467     -2.075797      0.046960
  C       1.288459      2.540004      0.029311
  H       2.376249      2.496989      0.049705
  C       0.642180      3.898303      0.011847
  H      -0.001970      3.996792     -0.876904
  H      -0.040710      4.000753      0.870702
  C       1.652701      5.059455      0.031823
  H       2.284906      4.968774      0.924417
  H       2.324335      4.965089     -0.831132
  C       0.980681      6.441074      0.013758
  H       0.327060      6.575006      0.882986
  H       0.365578      6.570571     -0.883793
  C      -1.534984     -2.560707      0.002921
  H      -2.215316     -2.574158      0.865757
  H      -2.197599     -2.576824     -0.873404
  C      -0.684033     -3.839474      0.013731
  H      -0.014836     -3.851107     -0.857060
  H      -0.037744     -3.851843      0.901664
  C      -1.542045     -5.116809      0.002650
  H      -2.214174     -5.108012      0.870928
  H      -2.190380     -5.108827     -0.883539
  C      -0.704675     -6.406002      0.014588
  H      -0.071299     -6.458427      0.907260
  H      -0.046134     -6.458274     -0.859686
  C      -4.164007     -0.022076     -0.056098
  H      -5.229505     -0.021585     -0.078119
  H       1.722277      7.246018      0.027881
  H      -1.340769     -7.296979      0.005507
  H       2.384292      0.077869      0.058398
37
Coordinates from ORCA-job opt_EPRII E -621.922678531738
  C      -2.944197     -0.017053     -0.033984
  C       1.296707      0.060052      0.037014
  C       0.587325      1.301576      0.020007
  C      -0.837086      1.224489     -0.004041
  C      -1.505962     -0.009323     -0.010097
  C      -0.782569     -1.240857      0.007383
  C       0.625926     -1.161759      0.030766
  H      -1.429204      2.133334     -0.017741
  H       1.209546     -2.076334      0.044235
  C       1.288680      2.539580      0.027606
  H       2.376530      2.497218      0.047287
  C       0.641329      3.898434      0.010830
  H       0.000061      3.998139     -0.879599
  H      -0.040616      4.000277      0.870203
  C       1.654013      5.058679      0.033195
  H       2.283986      4.967489      0.927194
  H       2.325415      4.965719     -0.829976
  C       0.980808      6.441019      0.015816
  H       0.326688      6.572552      0.885034
  H       0.367112      6.569927     -0.882784
  C      -1.536688     -2.560502      0.001566
  H      -2.216216     -2.573928      0.864817
  H      -2.196962     -2.577560     -0.876324
  C      -0.683631     -3.838867      0.013850
  H      -0.015156     -3.851396     -0.857312
  H      -0.039052     -3.850649      0.902868
  C      -1.542841     -5.116387      0.003283
  H      -2.214298     -5.107416      0.871954
  H      -2.189392     -5.109691     -0.884098
  C      -0.703535     -6.405651      0.016837
  H      -0.071237     -6.455370      0.910436
  H      -0.045012     -6.456705     -0.857529
  C      -4.164384     -0.023924     -0.055385
  H      -5.230029     -0.025357     -0.076467
  H       1.723030      7.245478      0.031543
  H      -1.339843     -7.296564      0.008138
  H       2.384157      0.078202      0.055410
37
Coordinates from ORCA-job opt_EPRII E -621.922680118562
  C      -2.943885     -0.017054     -0.034041
  C       1.296705      0.060205      0.035005
  C       0.587291      1.301589      0.018534
  C      -0.837002      1.224748     -0.004914
  C      -1.505629     -0.009138     -0.010841
  C      -0.782343     -1.240548      0.006209
  C       0.626083     -1.161497      0.028928
  H      -1.429032      2.133711     -0.018235
  H       1.209740     -2.076146      0.042053
  C       1.288815      2.539440      0.026113
  H       2.376748      2.497425      0.045214
  C       0.641202      3.898296      0.009893
  H       0.001418      3.998784     -0.881605
  H      -0.041149      3.999308      0.869111
  C       1.654060      5.058396      0.034434
  H       2.282708      4.966602      0.929396
  H       2.326095      4.966491     -0.828461
  C       0.980556      6.440763      0.017591
  H       0.325607      6.570909      0.886489
  H       0.367917      6.569883     -0.881795
  C      -1.536619     -2.560190      0.000525
  H      -2.216307     -2.573240      0.863716
  H      -2.195902     -2.577707     -0.878182
  C      -0.683602     -3.838651      0.013957
  H      -0.015187     -3.852044     -0.857329
  H      -0.039686     -3.850046      0.903550
  C      -1.543230     -5.115935      0.003942
  H      -2.214660     -5.106399      0.872729
  H      -2.189115     -5.109855     -0.884027
  C      -0.703878     -6.405312      0.018655
  H      -0.072037     -6.453932      0.912731
  H      -0.045243     -6.456480     -0.855716
  C      -4.163968     -0.025346     -0.054773
  H      -5.229665     -0.027923     -0.075030
  H       1.722952      7.245152      0.034831
  H      -1.340576     -7.296052      0.010360
  H       2.384223      0.078662      0.052918
37
Coordinates from ORCA-job opt_EPRII E -621.922680649113
  C      -2.943722     -0.016991     -0.034021
  C       1.296695      0.060298      0.032841
  C       0.587353      1.301631      0.016913
  C      -0.836879      1.224848     -0.005828
  C      -1.505465     -0.009021     -0.011491
  C      -0.782186     -1.240370      0.005053
  C       0.626187     -1.161313      0.026992
  H      -1.428855      2.133872     -0.018797
  H       1.209869     -2.075998      0.039720
  C       1.288952      2.539403      0.024368
  H       2.376931      2.497568      0.042798
  C       0.641340      3.898229      0.008650
  H       0.003029      3.999589     -0.883878
  H      -0.042119      3.998247      0.867145
  C       1.653991      5.058367      0.035927
  H       2.281175      4.965743      0.931881
  H       2.327242      4.967521     -0.826191
  C       0.980438      6.440706      0.019529
  H       0.324246      6.569689      0.887703
  H       0.369154      6.570490     -0.880724
  C      -1.536448     -2.559965     -0.000484
  H      -2.216592     -2.572581      0.862390
  H      -2.195034     -2.577891     -0.879766
  C      -0.683713     -3.838537      0.014084
  H      -0.015200     -3.852723     -0.857175
  H      -0.040135     -3.849399      0.903990
  C      -1.543411     -5.115692      0.004753
  H      -2.214933     -5.105554      0.873519
  H      -2.188987     -5.110202     -0.883502
  C      -0.704208     -6.405133      0.020515
  H      -0.072588     -6.452980      0.914827
  H      -0.045503     -6.456771     -0.853815
  C      -4.163750     -0.026494     -0.054089
  H      -5.229461     -0.029959     -0.073501
  H       1.722863      7.245059      0.038689
  H      -1.341129     -7.295750      0.012738
  H       2.384255      0.078932      0.050170
