%chk=g09BDE
%NProcShared=8
#P bmk/6-31+g ! ASE formatted method and basis
opt(modredun,calcfc) freq

Gaussian input prepared by ASE

0 2
C                -0.0761218505       -0.0118924617       -0.0003169851
C                 1.3261826761        0.0139293212       -0.0000628547
C                 2.0888465205       -1.2113002483       -0.0033912783
C                 3.4839591254       -1.0942270327       -0.0029119634
C                 4.1135650356        0.1614588539        0.0006911130
C                 3.3826908376        1.3770958956        0.0040229569
C                 1.9945823731        1.2814614601        0.0035464769
H                 4.1010194405       -1.9861415625       -0.0053419208
H                 1.3705454870        2.1678302802        0.0059296938
C                 1.3712127995       -2.5474271683       -0.0072278604
H                 0.7009611960       -2.5696133377       -0.8761145099
H                 0.6992786226       -2.5736665956        0.8602280145
C                 2.2582330535       -3.8021061521       -0.0093154192
H                 2.9149066759       -3.7967779782       -0.8898590180
H                 2.9134695906       -3.8006376454        0.8723185131
C                 1.4290853559       -5.0995358516       -0.0128438892
H                 0.7695676427       -5.1087174658        0.8646169185
H                 0.7711019699       -5.1049527734       -0.8914883728
C                 2.3004113368       -6.3671486476       -0.0148053715
H                 2.9453942158       -6.4040154374        0.8704520495
H                 2.9473516939       -6.3999337411       -0.8987949885
C                 4.1383619049        2.6989556593        0.0078894608
H                 4.8020374207        2.7106688712        0.8837853918
H                 4.8033948005        2.7149692536       -0.8669042247
C                 3.2818964231        3.9746231870        0.0103624273
H                 2.6260242959        3.9828727077       -0.8702077240
H                 2.6245548921        3.9785310810        0.8898597519
C                 4.1332688242        5.2572068730        0.0142526487
H                 4.7907500056        5.2523988727        0.8938246611
H                 4.7923962834        5.2566226411       -0.8640991352
C                 3.2830321883        6.5392886182        0.0165511698
H                 2.6364114495        6.5816119343        0.9000303035
H                 2.6385503816        6.5862087723       -0.8682577479
H                 1.6848738652       -7.2723600235       -0.0175743262
H                 3.9132395187        7.4343585976        0.0196398697
H                 5.2016265946        0.2034645227        0.0009147385
C                -1.3669531369       -0.0388700897       -0.0005623693


