48
Coordinates from ORCA-job opt E -815.792183689652
  C      -4.047444      0.098623      0.003081
  C      -2.832346      0.048376      0.004043
  C       2.832348     -0.048076      0.001585
  C      -1.400467      0.000000      0.000000
  C      -0.718383     -1.242662     -0.055174
  C       0.676681     -1.208025     -0.052821
  C       1.400467     -0.000000     -0.000000
  C       0.718336      1.242921      0.049494
  C      -0.676717      1.208302      0.049456
  H       1.245445     -2.136743     -0.094290
  H      -1.245463      2.137160      0.087417
  C      -1.507912     -2.536332     -0.113430
  H      -2.221498     -2.465765     -0.954536
  H      -2.147120     -2.592923      0.787274
  C      -0.703761     -3.832630     -0.242918
  H      -0.067876     -3.789577     -1.146441
  H      -0.014130     -3.936675      0.615049
  C      -1.599139     -5.075622     -0.317144
  H      -2.236724     -5.118664      0.585349
  H      -2.292643     -4.972966     -1.172375
  C      -0.810121     -6.380376     -0.451283
  H      -0.133698     -6.530554      0.407856
  H      -0.188937     -6.380096     -1.363581
  C       1.507733      2.537123      0.097178
  H       2.139813      2.523874      1.004550
  H       2.227963      2.530305     -0.740987
  C       0.703512      3.839538      0.058684
  H       0.064690      3.856539     -0.843414
  H       0.017076      3.885378      0.923986
  C       1.600165      5.083376      0.060907
  H       2.237608      5.074402      0.965285
  H       2.295268      5.030390     -0.798464
  C       0.820991      6.401890      0.000000
  H       0.174279      6.401204     -0.898175
  C       1.717133      7.644832     -0.025040
  H       2.408410      7.577708     -0.887170
  H       2.359481      7.652160      0.876487
  C       0.941333      8.964701     -0.103513
  H       0.294087      8.952242     -1.000398
  H       0.256387      9.037102      0.762025
  C       1.847080     10.198227     -0.143452
  H       2.483228     10.257343      0.756724
  H       2.518366     10.173608     -1.019408
  C       4.047388     -0.099544     -0.000070
  H      -5.118987      0.142550      0.004062
  H       5.118984     -0.142303     -0.000181
  H      -1.480137     -7.253819     -0.504361
  H       1.260844     11.130135     -0.199233
48
Coordinates from ORCA-job opt E -815.797814537928
  C      -4.026774      0.138934     -0.053187
  C      -2.812308      0.076024     -0.046732
  C       2.850979     -0.079438     -0.022198
  C      -1.381066      0.012693     -0.044322
  C      -0.711731     -1.237733     -0.074586
  C       0.683567     -1.217380     -0.066752
  C       1.419739     -0.016157     -0.031683
  C       0.750322      1.234337     -0.004560
  C      -0.644970      1.214045     -0.010714
  H       1.242716     -2.152543     -0.088848
  H      -1.204118      2.149228      0.010484
  C      -1.513907     -2.524370     -0.111475
  H      -2.222331     -2.464127     -0.957732
  H      -2.158398     -2.555973      0.786696
  C      -0.721592     -3.830672     -0.209079
  H      -0.079956     -3.813282     -1.109411
  H      -0.038066     -3.922711      0.655086
  C      -1.628066     -5.066565     -0.262072
  H      -2.271518     -5.084126      0.637125
  H      -2.315411     -4.976421     -1.123673
  C      -0.850131     -6.380913     -0.362575
  H      -0.180728     -6.518225      0.504225
  H      -0.222985     -6.406386     -1.270486
  C       1.552099      2.521314      0.030577
  H       2.180318      2.512679      0.940712
  H       2.275857      2.498326     -0.804720
  C       0.759205      3.830262     -0.023912
  H       0.124105      3.844813     -0.928664
  H       0.070707      3.891314      0.837342
  C       1.666618      5.068294     -0.028079
  H       2.304826      5.061547      0.876732
  H       2.364847      5.006903     -0.888967
  C       0.912456      6.383821     -0.111976
  H       0.194880      6.397246     -0.954871
  C       1.732860      7.659658     -0.042660
  H       2.429384      7.676733     -0.907589
  H       2.375524      7.640453      0.859426
  C       0.894487      8.944957     -0.043801
  H       0.251770      8.957727     -0.943964
  H       0.204780      8.928481      0.819312
  C       1.740691     10.220200     -0.000978
  H       2.369778     10.253041      0.905507
  H       2.415999     10.282889     -0.872306
  C       4.065407     -0.143740     -0.016866
  H      -5.097797      0.194164     -0.056984
  H       5.136460     -0.198069     -0.010765
  H      -1.527699     -7.249291     -0.401038
  H       1.110767     11.124693     -0.002364
48
Coordinates from ORCA-job opt E -815.800835138412
  C      -4.013707      0.172680     -0.107398
  C      -2.799744      0.101726     -0.094013
  C       2.862173     -0.091008     -0.044658
  C      -1.369029      0.028911     -0.083312
  C      -0.707933     -1.226238     -0.092381
  C       0.687406     -1.214837     -0.079135
  C       1.431460     -0.018163     -0.058433
  C       0.770373      1.236874     -0.051096
  C      -0.625039      1.225715     -0.063100
  H       1.240370     -2.153840     -0.085737
  H      -1.177977      2.164744     -0.057635
  C      -1.517880     -2.508389     -0.112667
  H      -2.219391     -2.459773     -0.965408
  H      -2.169502     -2.519106      0.780804
  C      -0.732340     -3.820763     -0.178452
  H      -0.082934     -3.825234     -1.073358
  H      -0.056749     -3.899126      0.693260
  C      -1.644779     -5.052745     -0.214576
  H      -2.296616     -5.048601      0.678736
  H      -2.323733     -4.977237     -1.084193
  C      -0.872447     -6.372636     -0.280258
  H      -0.212213     -6.494850      0.595786
  H      -0.236647     -6.420326     -1.181247
  C       1.580937      2.518508     -0.028569
  H       2.207864      2.514790      0.882514
  H       2.305618      2.482741     -0.862436
  C       0.796507      3.831476     -0.095205
  H       0.163729      3.844914     -1.001310
  H       0.107894      3.907194      0.764457
  C       1.713769      5.062073     -0.106202
  H       2.356117      5.056951      0.795357
  H       2.414569      4.987398     -0.969304
  C       0.983367      6.367530     -0.205819
  H       0.197728      6.390706     -0.979168
  C       1.744086      7.650706     -0.058327
  H       2.441325      7.742558     -0.923272
  H       2.392575      7.603860      0.838184
  C       0.860897      8.904025      0.009330
  H       0.218144      8.942742     -0.889774
  H       0.173637      8.813693      0.869436
  C       1.663843     10.202340      0.121941
  H       2.292409     10.207341      1.029373
  H       2.335477     10.335255     -0.744105
  C       4.076132     -0.163154     -0.035388
  H      -5.084284      0.235255     -0.117199
  H       5.146764     -0.224854     -0.025749
  H      -1.553870     -7.238428     -0.307188
  H       1.003239     11.083259      0.169526
48
Coordinates from ORCA-job opt E -815.802198018863
  C      -4.005691      0.191808     -0.162631
  C      -2.792065      0.116380     -0.143702
  C       2.868705     -0.098126     -0.070728
  C      -1.361704      0.038164     -0.126257
  C      -0.705704     -1.219650     -0.114375
  C       0.689608     -1.213547     -0.096299
  C       1.438358     -0.019655     -0.089979
  C       0.782385      1.238026     -0.101737
  C      -0.613011      1.232223     -0.119426
  H       1.238854     -2.154691     -0.087349
  H      -1.162234      2.173436     -0.128578
  C      -1.520613     -2.498882     -0.118058
  H      -2.212377     -2.465315     -0.979477
  H      -2.182298     -2.488388      0.767946
  C      -0.739512     -3.815232     -0.146911
  H      -0.080438     -3.842112     -1.034303
  H      -0.073780     -3.876502      0.733723
  C      -1.655769     -5.044716     -0.165809
  H      -2.318538     -5.017943      0.719040
  H      -2.323791     -4.987441     -1.045218
  C      -0.887023     -6.368175     -0.190999
  H      -0.238314     -6.471684      0.695990
  H      -0.240123     -6.438985     -1.082511
  C       1.598663      2.516190     -0.091246
  H       2.226288      2.517007      0.819338
  H       2.322523      2.470436     -0.925181
  C       0.821270      3.832531     -0.167499
  H       0.191411      3.845812     -1.075444
  H       0.131491      3.919412      0.690350
  C       1.746212      5.058112     -0.182881
  H       2.392374      5.051255      0.716179
  H       2.451521      4.965006     -1.043463
  C       1.031319      6.364142     -0.290401
  H       0.182446      6.396313     -0.989500
  C       1.754213      7.651392     -0.071788
  H       2.452844      7.816362     -0.927727
  H       2.408667      7.573742      0.818425
  C       0.841541      8.878746      0.062133
  H       0.198074      8.949052     -0.834345
  H       0.157605      8.724164      0.915911
  C       1.613729     10.187440      0.244044
  H       2.243764     10.158587      1.149963
  H       2.280147     10.382630     -0.614069
  C       4.082342     -0.174662     -0.056491
  H      -5.075960      0.258630     -0.177209
  H       5.152656     -0.240797     -0.042440
  H      -1.570861     -7.232347     -0.206258
  H       0.932389     11.048503      0.339881
48
Coordinates from ORCA-job opt E -815.802735965383
  C      -3.997137      0.207171     -0.218420
  C      -2.783832      0.128442     -0.193214
  C       2.875833     -0.103361     -0.095084
  C      -1.353807      0.046028     -0.168145
  C      -0.702102     -1.213654     -0.135505
  C       0.693174     -1.211891     -0.112821
  C       1.445836     -0.020453     -0.121097
  C       0.794065      1.239131     -0.153197
  C      -0.601215      1.237636     -0.175997
  H       1.239311     -2.154565     -0.088022
  H      -1.147251      2.180479     -0.200671
  C      -1.521542     -2.489978     -0.123475
  H      -2.202278     -2.471828     -0.994197
  H      -2.194405     -2.458775      0.753476
  C      -0.745135     -3.809382     -0.115158
  H      -0.076990     -3.858358     -0.994765
  H      -0.088896     -3.853385      0.773623
  C      -1.665657     -5.035824     -0.116746
  H      -2.338644     -4.986780      0.759404
  H      -2.323174     -4.996400     -1.005003
  C      -0.901507     -6.362168     -0.102594
  H      -0.263561     -6.447363      0.794095
  H      -0.244600     -6.455663     -0.984639
  C       1.614589      2.514501     -0.156526
  H       2.245474      2.520204      0.751767
  H       2.335277      2.459997     -0.992770
  C       0.842020      3.832910     -0.240123
  H       0.214008      3.845508     -1.149367
  H       0.151221      3.926544      0.616404
  C       1.772199      5.055369     -0.259267
  H       2.421120      5.046174      0.638164
  H       2.480096      4.947826     -1.116374
  C       1.062944      6.365040     -0.363682
  H       0.165411      6.403567     -0.995763
  C       1.761690      7.654292     -0.084851
  H       2.458601      7.886127     -0.926910
  H       2.421358      7.545151      0.798550
  C       0.825503      8.855697      0.113647
  H       0.179993      8.959470     -0.778102
  H       0.145875      8.642713      0.958456
  C       1.572353     10.167430      0.363677
  H       2.205204     10.102795      1.265789
  H       2.232567     10.420943     -0.483920
  C       4.089163     -0.183302     -0.074782
  H      -5.067114      0.277196     -0.238463
  H       5.159165     -0.253032     -0.055370
  H      -1.588273     -7.224144     -0.105956
  H       0.874664     11.008621      0.506557
48
Coordinates from ORCA-job opt E -815.802871661812
  C      -3.988979      0.220992     -0.262591
  C      -2.775971      0.139494     -0.232358
  C       2.882641     -0.106926     -0.111645
  C      -1.346270      0.053463     -0.201151
  C      -0.698291     -1.207577     -0.151299
  C       0.696912     -1.209508     -0.124127
  C       1.452996     -0.020354     -0.143918
  C       0.804917      1.240624     -0.192979
  C      -0.590264      1.242774     -0.220450
  H       1.240302     -2.153352     -0.086246
  H      -1.133472      2.186802     -0.258140
  C      -1.521626     -2.481218     -0.127840
  H      -2.192588     -2.475031     -1.006394
  H      -2.204150     -2.434042      0.740791
  C      -0.749475     -3.802584     -0.090449
  H      -0.074917     -3.868834     -0.964002
  H      -0.100106     -3.833144      0.803939
  C      -1.673938     -5.026007     -0.078175
  H      -2.353670     -4.959939      0.791632
  H      -2.324298     -4.999735     -0.972170
  C      -0.914355     -6.354357     -0.035232
  H      -0.283370     -6.425978      0.867553
  H      -0.251281     -6.465298     -0.910611
  C       1.628997      2.513613     -0.208949
  H       2.265249      2.522667      0.695507
  H       2.344587      2.452385     -1.049237
  C       0.859717      3.833654     -0.295480
  H       0.231030      3.845864     -1.204297
  H       0.169687      3.930278      0.561390
  C       1.793206      5.054073     -0.318676
  H       2.444983      5.043228      0.577066
  H       2.499447      4.940458     -1.175396
  C       1.083702      6.365218     -0.413062
  H       0.153369      6.405581     -0.994189
  C       1.766547      7.654981     -0.095255
  H       2.457163      7.934561     -0.926852
  H       2.431541      7.522535      0.781330
  C       0.811527      8.832576      0.153716
  H       0.162011      8.961160     -0.731926
  H       0.137652      8.575432      0.990852
  C       1.538088     10.144984      0.454387
  H       2.174998     10.054088      1.351379
  H       2.191309     10.443039     -0.384098
  C       4.095674     -0.189697     -0.085736
  H      -5.058683      0.293698     -0.287071
  H       5.165375     -0.262442     -0.061376
  H      -1.603998     -7.214014     -0.028673
  H       0.827670     10.968469      0.633141
48
Coordinates from ORCA-job opt E -815.802888853842
  C      -3.987009      0.224821     -0.272959
  C      -2.774097      0.142552     -0.241042
  C       2.884173     -0.108186     -0.113295
  C      -1.344513      0.055412     -0.207701
  C      -0.697606     -1.206034     -0.153999
  C       0.697542     -1.209038     -0.124988
  C       1.454627     -0.020578     -0.146897
  C       0.807696      1.240773     -0.200673
  C      -0.587471      1.244024     -0.229749
  H       1.240113     -2.153230     -0.084084
  H      -1.129831      2.188380     -0.271019
  C      -1.521912     -2.479006     -0.129632
  H      -2.188848     -2.475321     -1.011319
  H      -2.208348     -2.428562      0.735681
  C      -0.750727     -3.800700     -0.085073
  H      -0.074535     -3.870806     -0.957065
  H      -0.103076     -3.828118      0.810657
  C      -1.676049     -5.023439     -0.069960
  H      -2.356951     -4.954033      0.798670
  H      -2.325125     -4.999618     -0.964962
  C      -0.917541     -6.352193     -0.021624
  H      -0.287353     -6.421139      0.881928
  H      -0.253826     -6.466778     -0.896051
  C       1.633086      2.512883     -0.221425
  H       2.273763      2.521952      0.679837
  H       2.344570      2.449928     -1.065149
  C       0.865087      3.833901     -0.305810
  H       0.234186      3.846700     -1.213099
  H       0.177143      3.930572      0.552704
  C       1.800034      5.053196     -0.331983
  H       2.453596      5.042158      0.562662
  H       2.503395      4.938992     -1.190303
  C       1.089676      6.364812     -0.421018
  H       0.146529      6.403879     -0.981156
  C       1.768866      7.655940     -0.098385
  H       2.455834      7.945261     -0.928937
  H       2.435768      7.519359      0.776309
  C       0.808141      8.826557      0.162073
  H       0.156649      8.959272     -0.721536
  H       0.136628      8.559800      0.998065
  C       1.528707     10.140201      0.472183
  H       2.167149     10.045259      1.367666
  H       2.179473     10.447888     -0.364725
  C       4.097129     -0.191688     -0.086128
  H      -5.056625      0.298322     -0.298979
  H       5.166741     -0.265345     -0.060665
  H      -1.607894     -7.211256     -0.012550
  H       0.814631     10.958929      0.658139
48
Coordinates from ORCA-job opt E -815.802897361658
  C      -3.986520      0.225471     -0.276987
  C      -2.773623      0.143050     -0.244913
  C       2.884523     -0.108932     -0.113887
  C      -1.344075      0.055553     -0.211225
  C      -0.697486     -1.206011     -0.156294
  C       0.697638     -1.209318     -0.126304
  C       1.455023     -0.021072     -0.148739
  C       0.808430      1.240390     -0.203773
  C      -0.586726      1.243974     -0.233525
  H       1.239958     -2.153596     -0.084140
  H      -1.128847      2.188445     -0.275412
  C      -1.522038     -2.478837     -0.132112
  H      -2.186425     -2.476294     -1.015760
  H      -2.210943     -2.427202      0.731137
  C      -0.751084     -3.800553     -0.084141
  H      -0.074363     -3.872392     -0.955594
  H      -0.103953     -3.826318      0.812004
  C      -1.676592     -5.023127     -0.067348
  H      -2.357263     -4.952581      0.801367
  H      -2.325870     -5.000189     -0.962231
  C      -0.918352     -6.351965     -0.017713
  H      -0.287382     -6.419799      0.885381
  H      -0.255415     -6.468000     -0.892540
  C       1.634279      2.512174     -0.225955
  H       2.279400      2.519413      0.672081
  H       2.341637      2.450073     -1.073273
  C       0.866631      3.833849     -0.304876
  H       0.232919      3.848660     -1.210186
  H       0.181334      3.928467      0.555949
  C       1.802106      5.052570     -0.332057
  H       2.457428      5.040545      0.561402
  H       2.502434      4.940436     -1.192717
  C       1.090774      6.364388     -0.415625
  H       0.139238      6.402020     -0.961567
  C       1.770009      7.656921     -0.097169
  H       2.454764      7.945239     -0.929474
  H       2.437763      7.521365      0.777157
  C       0.807895      8.826176      0.163734
  H       0.155367      8.957647     -0.719314
  H       0.137401      8.559591      1.000556
  C       1.527025     10.141167      0.472090
  H       2.165888     10.047952      1.367449
  H       2.177148     10.448554     -0.365429
  C       4.097445     -0.192511     -0.085543
  H      -5.056112      0.299205     -0.303229
  H       5.167013     -0.266473     -0.059064
  H      -1.608924     -7.210832     -0.006766
  H       0.812116     10.959361      0.657210
48
Coordinates from ORCA-job opt E -815.802904759990
  C      -3.986732      0.224054     -0.280861
  C      -2.773829      0.141960     -0.248214
  C       2.884290     -0.109300     -0.114624
  C      -1.344297      0.054644     -0.213634
  C      -0.697572     -1.206840     -0.158588
  C       0.697540     -1.209968     -0.127865
  C       1.454788     -0.021633     -0.149853
  C       0.808061      1.239750     -0.205363
  C      -0.587079      1.243162     -0.235624
  H       1.239958     -2.154174     -0.085400
  H      -1.129319      2.187566     -0.277587
  C      -1.521949     -2.479813     -0.135322
  H      -2.183876     -2.478094     -1.020849
  H      -2.213242     -2.427710      0.725954
  C      -0.750856     -3.801362     -0.084670
  H      -0.073638     -3.874361     -0.955651
  H      -0.104190     -3.825712      0.811841
  C      -1.676221     -5.024023     -0.066601
  H      -2.356361     -4.952994      0.802486
  H      -2.326037     -5.001647     -0.961113
  C      -0.917866     -6.352770     -0.016665
  H      -0.285651     -6.419729      0.885627
  H      -0.256109     -6.469679     -0.892267
  C       1.633832      2.511566     -0.228123
  H       2.284363      2.515970      0.665937
  H       2.336127      2.451885     -1.079894
  C       0.865829      3.833619     -0.298766
  H       0.228412      3.851627     -1.201416
  H       0.184044      3.924480      0.565224
  C       1.801001      5.052317     -0.325688
  H       2.458904      5.038215      0.565938
  H       2.497804      4.944383     -1.189529
  C       1.088393      6.364101     -0.402094
  H       0.128890      6.400341     -0.934046
  C       1.770218      7.657775     -0.093089
  H       2.453337      7.939231     -0.928868
  H       2.438916      7.525904      0.781198
  C       0.809654      8.829045      0.163038
  H       0.156256      8.956865     -0.719908
  H       0.139766      8.567772      1.001987
  C       1.530351     10.145070      0.463799
  H       2.169329     10.056162      1.359506
  H       2.180625     10.446894     -0.375629
  C       4.097225     -0.192546     -0.085815
  H      -5.056321      0.297622     -0.307742
  H       5.166784     -0.266500     -0.058964
  H      -1.608411     -7.211636     -0.003896
  H       0.816453     10.965165      0.644317
48
Coordinates from ORCA-job opt E -815.802910315308
  C      -3.987564      0.221028     -0.286793
  C      -2.774623      0.139679     -0.253714
  C       2.883535     -0.108903     -0.117053
  C      -1.345075      0.053047     -0.218381
  C      -0.697804     -1.208112     -0.162586
  C       0.697299     -1.210580     -0.131145
  C       1.454012     -0.021902     -0.153098
  C       0.806710      1.239198     -0.208889
  C      -0.588409      1.241931     -0.239863
  H       1.240131     -2.154522     -0.088051
  H      -1.131100      2.186068     -0.281929
  C      -1.521616     -2.481455     -0.139417
  H      -2.181160     -2.481424     -1.026744
  H      -2.215239     -2.428384      0.719897
  C      -0.750056     -3.802582     -0.084828
  H      -0.071845     -3.877286     -0.954897
  H      -0.104359     -3.824645      0.812438
  C      -1.674983     -5.025549     -0.064942
  H      -2.355169     -4.953370      0.804013
  H      -2.324778     -5.004798     -0.959509
  C      -0.916180     -6.353955     -0.012873
  H      -0.283357     -6.418947      0.889138
  H      -0.254947     -6.472413     -0.888659
  C       1.631892      2.511401     -0.231577
  H       2.287654      2.512693      0.658586
  H       2.329239      2.455130     -1.087707
  C       0.862942      3.833428     -0.292940
  H       0.221910      3.855350     -1.192929
  H       0.184605      3.919493      0.574259
  C       1.797042      5.052733     -0.317863
  H       2.458091      5.035246      0.571459
  H       2.490706      4.950326     -1.184902
  C       1.083178      6.364332     -0.385802
  H       0.116785      6.400100     -0.905093
  C       1.769430      7.658064     -0.087016
  H       2.451540      7.930787     -0.926517
  H       2.439623      7.529966      0.786804
  C       0.812915      8.833520      0.163491
  H       0.158562      8.958140     -0.719197
  H       0.143556      8.579241      1.005011
  C       1.537741     10.149295      0.455500
  H       2.177053     10.064118      1.351326
  H       2.188360     10.443857     -0.386244
  C       4.096501     -0.191402     -0.087381
  H      -5.057178      0.294073     -0.314224
  H       5.166064     -0.265004     -0.059828
  H      -1.606455     -7.213004      0.002066
  H       0.826412     10.972646      0.631236
48
Coordinates from ORCA-job opt E -815.802914180775
  C      -3.989021      0.216777     -0.294065
  C      -2.776033      0.136540     -0.259944
  C       2.882213     -0.107645     -0.119510
  C      -1.346451      0.051048     -0.223117
  C      -0.698259     -1.209591     -0.166468
  C       0.696830     -1.210969     -0.134172
  C       1.452640     -0.021711     -0.155982
  C       0.804408      1.238887     -0.212638
  C      -0.590686      1.240510     -0.244543
  H       1.240359     -2.154484     -0.090484
  H      -1.134097      2.184198     -0.287319
  C      -1.521132     -2.483540     -0.143474
  H      -2.178274     -2.485496     -1.032603
  H      -2.217122     -2.429558      0.713848
  C      -0.748763     -3.804005     -0.084517
  H      -0.068925     -3.880311     -0.953173
  H      -0.104682     -3.823533      0.813972
  C      -1.672925     -5.027536     -0.063363
  H      -2.354038     -4.954148      0.804764
  H      -2.321829     -5.008899     -0.958624
  C      -0.913323     -6.355352     -0.007965
  H      -0.280886     -6.417900      0.894491
  H      -0.251601     -6.475389     -0.883165
  C       1.628600      2.511735     -0.235657
  H       2.289184      2.510474      0.650864
  H       2.321326      2.458913     -1.095807
  C       0.858311      3.833350     -0.288322
  H       0.214079      3.859089     -1.185898
  H       0.183040      3.914569      0.581774
  C       1.790869      5.053696     -0.310528
  H       2.455507      5.032191      0.576129
  H       2.481929      4.956964     -1.180421
  C       1.075945      6.365055     -0.369641
  H       0.103257      6.401102     -0.876846
  C       1.767967      7.657840     -0.080893
  H       2.449287      7.921558     -0.924047
  H       2.440554      7.532910      0.791675
  C       0.817419      8.838865      0.164863
  H       0.161660      8.961415     -0.717056
  H       0.148913      8.592000      1.009299
  C       1.548395     10.153085      0.448198
  H       2.188740     10.070290      1.343509
  H       2.198970     10.440039     -0.396210
  C       4.095239     -0.189040     -0.089282
  H      -5.058658      0.288988     -0.322616
  H       5.164838     -0.261996     -0.061318
  H      -1.603064     -7.214801      0.008608
  H       0.840879     10.980468      0.620311
48
Coordinates from ORCA-job opt E -815.802914975527
  C      -3.990231      0.213841     -0.298689
  C      -2.777202      0.134401     -0.264168
  C       2.881118     -0.106320     -0.120939
  C      -1.347580      0.049789     -0.226693
  C      -0.698663     -1.210432     -0.168978
  C       0.696414     -1.210949     -0.136033
  C       1.451516     -0.021244     -0.158159
  C       0.802554      1.238942     -0.215585
  C      -0.592525      1.239697     -0.248218
  H       1.240484     -2.154117     -0.091566
  H      -1.136490      2.183031     -0.291658
  C      -1.520796     -2.484849     -0.145693
  H      -2.176647     -2.488350     -1.035776
  H      -2.218070     -2.430135      0.710536
  C      -0.747760     -3.804774     -0.083711
  H      -0.066510     -3.882053     -0.951169
  H      -0.105100     -3.822574      0.815836
  C      -1.671277     -5.028796     -0.062159
  H      -2.353766     -4.954482      0.804809
  H      -2.318821     -5.011894     -0.958437
  C      -0.911004     -6.356092     -0.003542
  H      -0.279819     -6.416782      0.899916
  H      -0.247977     -6.477180     -0.877607
  C       1.625960      2.512302     -0.238909
  H       2.288489      2.510214      0.646135
  H       2.316797      2.461154     -1.100696
  C       0.854747      3.833459     -0.287928
  H       0.209453      3.860975     -1.184672
  H       0.180476      3.912331      0.583195
  C       1.786297      5.054577     -0.308234
  H       2.452926      5.030614      0.576943
  H       2.476574      4.960570     -1.179156
  C       1.071033      6.365835     -0.362651
  H       0.095267      6.402624     -0.863681
  C       1.766851      7.657378     -0.078213
  H       2.447636      7.917283     -0.923106
  H       2.441558      7.532993      0.792881
  C       0.820543      8.841876      0.167056
  H       0.163439      8.964772     -0.713802
  H       0.153001      8.598335      1.013255
  C       1.555999     10.154269      0.446799
  H       2.197776     10.071072      1.341050
  H       2.205841     10.437943     -0.399281
  C       4.094180     -0.186871     -0.089942
  H      -5.059895      0.285441     -0.327738
  H       5.163803     -0.259276     -0.061371
  H      -1.600271     -7.215913      0.013460
  H       0.851264     10.984019      0.618926
