48
Coordinates from ORCA-job opt_EPRII E -815.881678082742
  C      -3.990231      0.213841     -0.298689
  C      -2.777202      0.134401     -0.264168
  C       2.881118     -0.106320     -0.120939
  C      -1.347580      0.049789     -0.226693
  C      -0.698663     -1.210432     -0.168978
  C       0.696414     -1.210949     -0.136033
  C       1.451516     -0.021244     -0.158159
  C       0.802554      1.238942     -0.215585
  C      -0.592525      1.239697     -0.248218
  H       1.240484     -2.154117     -0.091566
  H      -1.136490      2.183031     -0.291658
  C      -1.520796     -2.484849     -0.145693
  H      -2.176647     -2.488350     -1.035776
  H      -2.218070     -2.430135      0.710536
  C      -0.747760     -3.804774     -0.083711
  H      -0.066510     -3.882053     -0.951169
  H      -0.105100     -3.822574      0.815836
  C      -1.671277     -5.028796     -0.062159
  H      -2.353766     -4.954482      0.804809
  H      -2.318821     -5.011894     -0.958437
  C      -0.911004     -6.356092     -0.003542
  H      -0.279819     -6.416782      0.899916
  H      -0.247977     -6.477180     -0.877607
  C       1.625960      2.512302     -0.238909
  H       2.288489      2.510214      0.646135
  H       2.316797      2.461154     -1.100696
  C       0.854747      3.833459     -0.287928
  H       0.209453      3.860975     -1.184672
  H       0.180476      3.912331      0.583195
  C       1.786297      5.054577     -0.308234
  H       2.452926      5.030614      0.576943
  H       2.476574      4.960570     -1.179156
  C       1.071033      6.365835     -0.362651
  H       0.095267      6.402624     -0.863681
  C       1.766851      7.657378     -0.078213
  H       2.447636      7.917283     -0.923106
  H       2.441558      7.532993      0.792881
  C       0.820543      8.841876      0.167056
  H       0.163439      8.964772     -0.713802
  H       0.153001      8.598335      1.013255
  C       1.555999     10.154269      0.446799
  H       2.197776     10.071072      1.341050
  H       2.205841     10.437943     -0.399281
  C       4.094180     -0.186871     -0.089942
  H      -5.059895      0.285441     -0.327738
  H       5.163803     -0.259276     -0.061371
  H      -1.600271     -7.215913      0.013460
  H       0.851264     10.984019      0.618926
48
Coordinates from ORCA-job opt_EPRII E -815.882819422282
  C      -3.999094      0.214670     -0.304279
  C      -2.782101      0.135060     -0.270787
  C       2.885014     -0.113236     -0.129672
  C      -1.350252      0.048436     -0.234501
  C      -0.702039     -1.215185     -0.174558
  C       0.695909     -1.217880     -0.142482
  C       1.453222     -0.026183     -0.166822
  C       0.805008      1.237422     -0.225311
  C      -0.592950      1.240353     -0.258127
  H       1.235420     -2.157027     -0.096743
  H      -1.132423      2.179693     -0.301588
  C      -1.527036     -2.491262     -0.146957
  H      -2.178400     -2.498362     -1.032284
  H      -2.218615     -2.434771      0.705451
  C      -0.750831     -3.813200     -0.080739
  H      -0.074754     -3.893276     -0.943571
  H      -0.111797     -3.827661      0.813336
  C      -1.675146     -5.041113     -0.053695
  H      -2.352393     -4.965081      0.808421
  H      -2.318595     -5.029211     -0.944471
  C      -0.910963     -6.371315      0.010135
  H      -0.283534     -6.426352      0.907602
  H      -0.252825     -6.493612     -0.858205
  C       1.631344      2.512351     -0.247734
  H       2.287768      2.510670      0.633844
  H       2.318087      2.462224     -1.104620
  C       0.857323      3.835507     -0.297120
  H       0.218829      3.864276     -1.190618
  H       0.185176      3.912517      0.567413
  C       1.790722      5.059389     -0.312276
  H       2.447929      5.034299      0.571303
  H       2.480086      4.966946     -1.175168
  C       1.073549      6.374577     -0.367985
  H       0.105928      6.412340     -0.870381
  C       1.769432      7.669303     -0.073790
  H       2.450786      7.931194     -0.907997
  H       2.432642      7.543046      0.796833
  C       0.819665      8.856534      0.170364
  H       0.173339      8.983050     -0.709032
  H       0.151233      8.611960      1.006156
  C       1.556264     10.171277      0.461670
  H       2.188026     10.083259      1.353503
  H       2.207156     10.455811     -0.373718
  C       4.102020     -0.193838     -0.098712
  H      -5.061942      0.285750     -0.332174
  H       5.164804     -0.265614     -0.070462
  H      -1.594833     -7.226679      0.030961
  H       0.855435     10.995597      0.632218
48
Coordinates from ORCA-job opt_EPRII E -815.882882832076
  C      -3.999819      0.217689     -0.307289
  C      -2.782227      0.138462     -0.273614
  C       2.885687     -0.116549     -0.134898
  C      -1.349973      0.050335     -0.237018
  C      -0.703492     -1.214553     -0.176226
  C       0.695130     -1.219751     -0.144998
  C       1.453451     -0.027917     -0.170748
  C       0.807002      1.236968     -0.229980
  C      -0.591639      1.242389     -0.262313
  H       1.232797     -2.159508     -0.099043
  H      -1.129293      2.182290     -0.306841
  C      -1.530712     -2.490213     -0.146763
  H      -2.180337     -2.499106     -1.032281
  H      -2.219891     -2.432908      0.706418
  C      -0.751401     -3.811928     -0.078689
  H      -0.077626     -3.893562     -0.942086
  H      -0.113129     -3.824484      0.814914
  C      -1.676926     -5.040719     -0.048320
  H      -2.351947     -4.963910      0.814342
  H      -2.319319     -5.031984     -0.938805
  C      -0.909303     -6.371107      0.018122
  H      -0.281921     -6.421674      0.915031
  H      -0.252577     -6.493120     -0.850450
  C       1.635713      2.511378     -0.253552
  H       2.289993      2.510608      0.628560
  H       2.320482      2.460817     -1.110873
  C       0.859004      3.834581     -0.303809
  H       0.223518      3.863650     -1.198438
  H       0.186929      3.911134      0.559788
  C       1.794584      5.058595     -0.316319
  H       2.446315      5.033740      0.570141
  H       2.484987      4.966302     -1.176658
  C       1.075429      6.374729     -0.374602
  H       0.110496      6.413047     -0.880843
  C       1.770533      7.670045     -0.071553
  H       2.454620      7.935521     -0.900489
  H       2.425986      7.541436      0.803346
  C       0.816106      8.855842      0.171183
  H       0.176874      8.985981     -0.711740
  H       0.144360      8.608114      1.002233
  C       1.552520     10.170724      0.472672
  H       2.178504     10.077307      1.367169
  H       2.207206     10.457543     -0.358045
  C       4.103328     -0.196740     -0.105071
  H      -5.062841      0.288486     -0.335372
  H       5.166320     -0.268217     -0.077840
  H      -1.592301     -7.226329      0.041510
  H       0.850395     10.993218      0.642771
48
Coordinates from ORCA-job opt_EPRII E -815.882898478920
  C      -3.999489      0.217058     -0.310167
  C      -2.781737      0.139679     -0.277209
  C       2.885558     -0.116944     -0.140506
  C      -1.349308      0.051322     -0.241312
  C      -0.703764     -1.213840     -0.179093
  C       0.695071     -1.220178     -0.148568
  C       1.453152     -0.028089     -0.176131
  C       0.807632      1.237104     -0.236014
  C      -0.591210      1.243651     -0.267942
  H       1.232059     -2.160271     -0.101742
  H      -1.128216      2.183886     -0.313263
  C      -1.532511     -2.489199     -0.147271
  H      -2.180730     -2.500235     -1.033627
  H      -2.220110     -2.430488      0.706918
  C      -0.751595     -3.810827     -0.076504
  H      -0.079789     -3.895029     -0.941040
  H      -0.113763     -3.821331      0.817298
  C      -1.678503     -5.039444     -0.042093
  H      -2.351715     -4.960823      0.821704
  H      -2.320266     -5.033965     -0.932950
  C      -0.908892     -6.369832      0.027704
  H      -0.281141     -6.415746      0.924631
  H      -0.253348     -6.492586     -0.841688
  C       1.637913      2.511201     -0.260559
  H       2.290963      2.511007      0.622323
  H       2.320962      2.460405     -1.119044
  C       0.859825      3.834620     -0.310968
  H       0.226772      3.864576     -1.207169
  H       0.187717      3.910809      0.552499
  C       1.797528      5.058131     -0.320738
  H       2.444228      5.033319      0.569198
  H       2.489468      4.965745     -1.179386
  C       1.077522      6.374872     -0.381367
  H       0.115374      6.414564     -0.892737
  C       1.771836      7.669493     -0.068647
  H       2.459929      7.938660     -0.892584
  H       2.419345      7.537410      0.811446
  C       0.813893      8.853839      0.172493
  H       0.181886      8.988456     -0.714848
  H       0.137806      8.602824      0.998933
  C       1.550064     10.167656      0.484859
  H       2.170230     10.067979      1.382754
  H       2.209360     10.456878     -0.341391
  C       4.103355     -0.195161     -0.110911
  H      -5.062772      0.286424     -0.337687
  H       5.166606     -0.265108     -0.083903
  H      -1.592094     -7.224912      0.054267
  H       0.846488     10.989094      0.654664
48
Coordinates from ORCA-job opt_EPRII E -815.882899845688
  C      -3.999351      0.215270     -0.311058
  C      -2.781625      0.139410     -0.277875
  C       2.885236     -0.116287     -0.141917
  C      -1.349185      0.051372     -0.241614
  C      -0.703633     -1.213634     -0.179370
  C       0.695142     -1.219920     -0.149069
  C       1.452796     -0.027712     -0.176882
  C       0.807276      1.237313     -0.237203
  C      -0.591501      1.243809     -0.268904
  H       1.232242     -2.160036     -0.102289
  H      -1.128609      2.184051     -0.314685
  C      -1.532533     -2.488956     -0.147371
  H      -2.180163     -2.500423     -1.034240
  H      -2.219967     -2.430036      0.707024
  C      -0.751625     -3.810623     -0.075948
  H      -0.080465     -3.895630     -0.941020
  H      -0.113841     -3.820678      0.817999
  C      -1.678819     -5.039001     -0.040355
  H      -2.351448     -4.959828      0.823963
  H      -2.320511     -5.034364     -0.931383
  C      -0.908997     -6.369364      0.030256
  H      -0.280931     -6.413910      0.927143
  H      -0.253989     -6.492371     -0.839620
  C       1.637735      2.511340     -0.262666
  H       2.291111      2.511390      0.620065
  H       2.319746      2.460369     -1.122052
  C       0.859723      3.834919     -0.312728
  H       0.226964      3.865216     -1.209231
  H       0.188014      3.911155      0.551140
  C       1.797992      5.058138     -0.322171
  H       2.443207      5.033682      0.568920
  H       2.490400      4.965237     -1.180500
  C       1.078271      6.375020     -0.383956
  H       0.117613      6.415539     -0.898205
  C       1.772268      7.668942     -0.067533
  H       2.462542      7.939081     -0.889447
  H       2.416517      7.535269      0.814807
  C       0.813863      8.853202      0.172403
  H       0.184732      8.989522     -0.716838
  H       0.135698      8.601456      0.997036
  C       1.550047     10.166267      0.488541
  H       2.167963     10.064276      1.387839
  H       2.211281     10.455997     -0.336096
  C       4.103031     -0.192937     -0.112905
  H      -5.062742      0.283519     -0.338833
  H       5.166412     -0.261740     -0.086419
  H      -1.592465     -7.224320      0.057905
  H       0.846171     10.987661      0.657976
48
Coordinates from ORCA-job opt_EPRII E -815.882899730449
  C      -3.999402      0.213685     -0.312346
  C      -2.781646      0.139199     -0.279563
  C       2.885064     -0.115833     -0.143630
  C      -1.349191      0.051342     -0.243667
  C      -0.703564     -1.213530     -0.180788
  C       0.695159     -1.219680     -0.150529
  C       1.452624     -0.027473     -0.178968
  C       0.807017      1.237436     -0.239477
  C      -0.591703      1.243797     -0.271141
  H       1.232344     -2.159771     -0.103275
  H      -1.128899      2.184032     -0.317045
  C      -1.532392     -2.488816     -0.148153
  H      -2.179448     -2.501079     -1.035488
  H      -2.220163     -2.429221      0.705979
  C      -0.751709     -3.810467     -0.075235
  H      -0.080718     -3.896558     -0.940406
  H      -0.114007     -3.819586      0.818849
  C      -1.678891     -5.038705     -0.038189
  H      -2.351361     -4.958566      0.826232
  H      -2.320524     -5.035157     -0.929332
  C      -0.909129     -6.368999      0.033916
  H      -0.280880     -6.412178      0.930789
  H      -0.254409     -6.492930     -0.836097
  C       1.637400      2.511433     -0.265380
  H       2.291639      2.511234      0.616765
  H       2.318362      2.460718     -1.125675
  C       0.859604      3.835135     -0.314206
  H       0.226440      3.866022     -1.210469
  H       0.188546      3.911025      0.550257
  C       1.798012      5.058230     -0.323509
  H       2.442759      5.033856      0.567958
  H       2.490480      4.965092     -1.181865
  C       1.078709      6.375211     -0.385546
  H       0.119449      6.416637     -0.902426
  C       1.772366      7.668430     -0.066000
  H       2.464457      7.939372     -0.886231
  H       2.414409      7.533250      0.817778
  C       0.814060      8.852804      0.173338
  H       0.186783      8.990460     -0.717074
  H       0.134343      8.600514      0.996591
  C       1.550236     10.165209      0.492184
  H       2.166759     10.061585      1.392301
  H       2.212714     10.455496     -0.331308
  C       4.102879     -0.190997     -0.114314
  H      -5.062864      0.281032     -0.339843
  H       5.166323     -0.258816     -0.087579
  H      -1.592755     -7.223828      0.062836
  H       0.846310     10.986606      0.661613
