48
Coordinates from ORCA-job opt_cc-pVDZ E -815.802914994356
  C      -3.990231      0.213841     -0.298689
  C      -2.777202      0.134401     -0.264168
  C       2.881118     -0.106320     -0.120939
  C      -1.347580      0.049789     -0.226693
  C      -0.698663     -1.210432     -0.168978
  C       0.696414     -1.210949     -0.136033
  C       1.451516     -0.021244     -0.158159
  C       0.802554      1.238942     -0.215585
  C      -0.592525      1.239697     -0.248218
  H       1.240484     -2.154117     -0.091566
  H      -1.136490      2.183031     -0.291658
  C      -1.520796     -2.484849     -0.145693
  H      -2.176647     -2.488350     -1.035776
  H      -2.218070     -2.430135      0.710536
  C      -0.747760     -3.804774     -0.083711
  H      -0.066510     -3.882053     -0.951169
  H      -0.105100     -3.822574      0.815836
  C      -1.671277     -5.028796     -0.062159
  H      -2.353766     -4.954482      0.804809
  H      -2.318821     -5.011894     -0.958437
  C      -0.911004     -6.356092     -0.003542
  H      -0.279819     -6.416782      0.899916
  H      -0.247977     -6.477180     -0.877607
  C       1.625960      2.512302     -0.238909
  H       2.288489      2.510214      0.646135
  H       2.316797      2.461154     -1.100696
  C       0.854747      3.833459     -0.287928
  H       0.209453      3.860975     -1.184672
  H       0.180476      3.912331      0.583195
  C       1.786297      5.054577     -0.308234
  H       2.452926      5.030614      0.576943
  H       2.476574      4.960570     -1.179156
  C       1.071033      6.365835     -0.362651
  H       0.095267      6.402624     -0.863681
  C       1.766851      7.657378     -0.078213
  H       2.447636      7.917283     -0.923106
  H       2.441558      7.532993      0.792881
  C       0.820543      8.841876      0.167056
  H       0.163439      8.964772     -0.713802
  H       0.153001      8.598335      1.013255
  C       1.555999     10.154269      0.446799
  H       2.197776     10.071072      1.341050
  H       2.205841     10.437943     -0.399281
  C       4.094180     -0.186871     -0.089942
  H      -5.059895      0.285441     -0.327738
  H       5.163803     -0.259276     -0.061371
  H      -1.600271     -7.215913      0.013460
  H       0.851264     10.984019      0.618926
48
Coordinates from ORCA-job opt_cc-pVDZ E -815.802914861652
  C      -3.990474      0.213479     -0.298481
  C      -2.777441      0.134144     -0.263858
  C       2.880897     -0.106043     -0.120379
  C      -1.347815      0.049669     -0.226224
  C      -0.698776     -1.210494     -0.168570
  C       0.696296     -1.210879     -0.135530
  C       1.451284     -0.021100     -0.157551
  C       0.802212      1.239014     -0.215171
  C      -0.592868      1.239641     -0.247866
  H       1.240450     -2.154000     -0.091082
  H      -1.136912      2.182924     -0.291454
  C      -1.520782     -2.484996     -0.145490
  H      -2.176636     -2.488439     -1.035570
  H      -2.218060     -2.430466      0.710748
  C      -0.747611     -3.804844     -0.083670
  H      -0.066124     -3.881843     -0.950966
  H      -0.105187     -3.822789      0.816044
  C      -1.670990     -5.028982     -0.062709
  H      -2.353926     -4.954869      0.803925
  H      -2.318086     -5.012047     -0.959309
  C      -0.910579     -6.356190     -0.003882
  H      -0.279930     -6.416960      0.899945
  H      -0.247011     -6.477025     -0.877573
  C       1.625503      2.512447     -0.238701
  H       2.287808      2.510699      0.646515
  H       2.316549      2.461102     -1.100306
  C       0.854202      3.833514     -0.288322
  H       0.209212      3.860788     -1.185293
  H       0.179615      3.912600      0.582541
  C       1.785706      5.054697     -0.308651
  H       2.452363      5.030736      0.576528
  H       2.476200      4.960447     -1.179361
  C       1.070499      6.365994     -0.363119
  H       0.094601      6.402918     -0.863870
  C       1.766767      7.657330     -0.078817
  H       2.447342      7.917413     -0.923811
  H       2.441944      7.532628      0.791881
  C       0.820963      8.842124      0.167214
  H       0.163448      8.965423     -0.713282
  H       0.153759      8.598599      1.013688
  C       1.557033     10.154162      0.446888
  H       2.199385     10.070464      1.340682
  H       2.206392     10.437938     -0.399527
  C       4.093969     -0.186466     -0.089393
  H      -5.060140      0.285000     -0.327657
  H       5.163597     -0.258788     -0.060858
  H      -1.599741     -7.216105      0.012542
  H       0.852686     10.984082      0.619795
