48
Coordinates from ORCA-job opt_EPRII E -815.876130785511
  C      -4.033095      0.125995     -0.120550
  C      -2.818554      0.064283     -0.113733
  C       2.844701     -0.087698     -0.094014
  C      -1.387308      0.001670     -0.109120
  C      -0.717415     -1.248577     -0.131387
  C       0.677891     -1.227304     -0.125201
  C       1.413450     -0.025455     -0.098238
  C       0.743520      1.224786     -0.076040
  C      -0.651774      1.203497     -0.082207
  H       1.237515     -2.162251     -0.141592
  H      -1.211574      2.138326     -0.066066
  C      -1.519082     -2.535740     -0.160319
  H      -2.193391     -2.502424     -1.035822
  H      -2.198917     -2.538057      0.711570
  C      -0.725170     -3.844428     -0.184263
  H      -0.057419     -3.863303     -1.065313
  H      -0.067448     -3.901298      0.702698
  C      -1.630154     -5.082043     -0.216172
  H      -2.302557     -5.063679      0.661573
  H      -2.289170     -5.027876     -1.102556
  C      -0.849650     -6.398680     -0.237162
  H      -0.209987     -6.499597      0.656655
  H      -0.192325     -6.460562     -1.121673
  C       1.544976      2.512262     -0.046310
  H       2.211265      2.483799      0.835489
  H       2.232417      2.510877     -0.912033
  C       0.748806      3.819980     -0.035637
  H       0.094974      3.867835     -0.925718
  H       0.077234      3.843479      0.842094
  C       1.650750      5.059985     -0.009203
  H       2.308780      5.015134      0.879125
  H       2.325397      5.040432     -0.885895
  C       0.871144      6.379748      0.002295
  H       0.196174      6.397851      0.879166
  H       0.212832      6.422731     -0.886310
  C       1.768137      7.622332      0.028249
  H       2.440869      7.614214     -0.849002
  H       2.424364      7.589422      0.917345
  C       0.965992      8.948773      0.039424
  H       0.313046      8.962787     -0.853435
  H       0.295262      8.937141      0.919053
  C       1.821040     10.171631      0.065838
  H       2.200965     10.570215      1.010891
  H       2.218733     10.598274     -0.859437
  C       4.059287     -0.148837     -0.092234
  H      -5.104117      0.181270     -0.124553
  H       5.130370     -0.203000     -0.089533
  H      -1.525743     -7.268664     -0.263008
48
Coordinates from ORCA-job opt_EPRII E -815.877251386038
  C      -4.043256      0.125256     -0.118536
  C      -2.824744      0.063950     -0.112474
  C       2.847446     -0.093534     -0.094051
  C      -1.391233     -0.000092     -0.108721
  C      -0.721529     -1.253615     -0.131342
  C       0.676647     -1.233931     -0.125299
  C       1.413951     -0.029723     -0.098247
  C       0.744297      1.223829     -0.075699
  C      -0.653921      1.204122     -0.081671
  H       1.232001     -2.164789     -0.141799
  H      -1.209507      2.134813     -0.065300
  C      -1.525506     -2.542933     -0.160614
  H      -2.194451     -2.510689     -1.032134
  H      -2.200519     -2.546304      0.706830
  C      -0.727902     -3.853500     -0.184481
  H      -0.064235     -3.871929     -1.060337
  H      -0.074871     -3.909992      0.697743
  C      -1.633138     -5.095478     -0.217068
  H      -2.301048     -5.079047      0.655440
  H      -2.287298     -5.042914     -1.098520
  C      -0.848231     -6.414926     -0.238327
  H      -0.213023     -6.513687      0.649855
  H      -0.195099     -6.474341     -1.116962
  C       1.548511      2.513159     -0.045967
  H       2.209821      2.485347      0.831530
  H       2.230877      2.512293     -0.907487
  C       0.750039      3.823291     -0.035349
  H       0.100896      3.871427     -0.920729
  H       0.082634      3.846948      0.837331
  C       1.654175      5.065946     -0.008384
  H       2.306880      5.021819      0.875609
  H       2.324839      5.046665     -0.879715
  C       0.872359      6.388638      0.002244
  H       0.201463      6.406720      0.873666
  H       0.219575      6.431155     -0.882005
  C       1.771858      7.634184      0.028784
  H       2.440584      7.626235     -0.842600
  H       2.422207      7.602266      0.913433
  C       0.967311      8.963485      0.038523
  H       0.319924      8.977536     -0.849616
  H       0.300349      8.952837      0.912129
  C       1.825171     10.189871      0.065333
  H       2.200463     10.587533      1.003936
  H       2.220184     10.614453     -0.853167
  C       4.065989     -0.154331     -0.092233
  H      -5.107450      0.179667     -0.121844
  H       5.130231     -0.207745     -0.089558
  H      -1.518677     -7.280691     -0.264420
48
Coordinates from ORCA-job opt_EPRII E -815.877309460856
  C      -4.044163      0.127523     -0.117131
  C      -2.825060      0.066746     -0.111430
  C       2.847993     -0.096848     -0.094588
  C      -1.391114      0.001328     -0.108049
  C      -0.722984     -1.253441     -0.131069
  C       0.675880     -1.236048     -0.125387
  C       1.414064     -0.031583     -0.098365
  C       0.745984      1.223232     -0.075611
  C      -0.652911      1.205799     -0.081193
  H       1.229513     -2.167511     -0.142142
  H      -1.206814      2.137102     -0.064657
  C      -1.529049     -2.542491     -0.160541
  H      -2.195671     -2.510693     -1.032802
  H      -2.202306     -2.546355      0.707196
  C      -0.728333     -3.852847     -0.184194
  H      -0.065792     -3.871016     -1.059871
  H      -0.077204     -3.909296      0.698410
  C      -1.634713     -5.095790     -0.217393
  H      -2.301282     -5.080720      0.655089
  H      -2.286964     -5.044137     -1.099246
  C      -0.846442     -6.415503     -0.238731
  H      -0.212267     -6.512212      0.649590
  H      -0.193782     -6.472383     -1.117048
  C       1.552267      2.512249     -0.045986
  H       2.211549      2.484863      0.832009
  H       2.232646      2.511707     -0.908016
  C       0.750879      3.822245     -0.035525
  H       0.103641      3.870411     -0.921298
  H       0.084541      3.845584      0.836962
  C       1.656551      5.065563     -0.007838
  H       2.306727      5.022214      0.877007
  H       2.326463      5.046854     -0.878697
  C       0.871598      6.388166      0.001810
  H       0.201422      6.405807      0.872693
  H       0.221557      6.430185     -0.883399
  C       1.772679      7.634458      0.029348
  H       2.440891      7.627098     -0.841333
  H       2.420021      7.603527      0.915150
  C       0.964869      8.963515      0.037589
  H       0.320328      8.977380     -0.851460
  H       0.298329      8.953153      0.910335
  C       1.824049     10.191035      0.065250
  H       2.195491     10.590559      1.004091
  H       2.217876     10.616863     -0.852668
  C       4.067124     -0.157147     -0.093066
  H      -5.108556      0.181536     -0.120129
  H       5.131561     -0.210247     -0.090689
  H      -1.516040     -7.281178     -0.265246
48
Coordinates from ORCA-job opt_EPRII E -815.877325327235
  C      -4.044091      0.125849     -0.115961
  C      -2.824864      0.067101     -0.110794
  C       2.847601     -0.097431     -0.095640
  C      -1.390751      0.001635     -0.107954
  C      -0.723367     -1.253391     -0.131231
  C       0.675709     -1.236905     -0.125967
  C       1.413505     -0.032053     -0.099117
  C       0.746171      1.223027     -0.076021
  C      -0.652927      1.206483     -0.081185
  H       1.228798     -2.168678     -0.142873
  H      -1.206305      2.138087     -0.064423
  C      -1.530761     -2.542326     -0.160672
  H      -2.195577     -2.511062     -1.034173
  H      -2.202909     -2.546392      0.707748
  C      -0.728365     -3.852647     -0.183764
  H      -0.066563     -3.871164     -1.059850
  H      -0.078852     -3.909236      0.699884
  C      -1.636005     -5.095600     -0.217298
  H      -2.301709     -5.081246      0.655746
  H      -2.286724     -5.044613     -1.100212
  C      -0.845777     -6.415443     -0.238350
  H      -0.212384     -6.510314      0.650754
  H      -0.193203     -6.470401     -1.116880
  C       1.553730      2.511935     -0.046411
  H       2.211591      2.484841      0.832509
  H       2.232683      2.511743     -0.909404
  C       0.750745      3.821956     -0.035939
  H       0.105078      3.870583     -0.922698
  H       0.085128      3.845202      0.836956
  C       1.657824      5.065290     -0.007364
  H       2.305780      5.022272      0.878979
  H       2.327519      5.046842     -0.878249
  C       0.871153      6.387937      0.001318
  H       0.201075      6.405403      0.872122
  H       0.223619      6.429981     -0.885568
  C       1.773669      7.634239      0.030219
  H       2.442058      7.627168     -0.840187
  H       2.418210      7.603785      0.917936
  C       0.964117      8.963153      0.036915
  H       0.322231      8.977376     -0.853916
  H       0.297298      8.953385      0.909318
  C       1.824894     10.190492      0.065812
  H       2.193124     10.591169      1.005543
  H       2.218768     10.617051     -0.851864
  C       4.066852     -0.155708     -0.094294
  H      -5.108707      0.178276     -0.118503
  H       5.131506     -0.207310     -0.092128
  H      -1.515548     -7.281084     -0.265140
48
Coordinates from ORCA-job opt_EPRII E -815.877327442482
  C      -4.043960      0.123850     -0.115421
  C      -2.824765      0.066623     -0.110425
  C       2.847272     -0.096982     -0.096248
  C      -1.390635      0.001448     -0.107709
  C      -0.723242     -1.253427     -0.131233
  C       0.675781     -1.236876     -0.126215
  C       1.413158     -0.031895     -0.099373
  C       0.745817      1.223035     -0.076136
  C      -0.653224      1.206423     -0.081055
  H       1.228967     -2.168663     -0.143294
  H      -1.206700      2.138042     -0.064205
  C      -1.530787     -2.542336     -0.160737
  H      -2.195015     -2.511226     -1.034763
  H      -2.202763     -2.546428      0.707879
  C      -0.728376     -3.852735     -0.183555
  H      -0.066727     -3.871511     -1.059841
  H      -0.079418     -3.909438      0.700584
  C      -1.636313     -5.095494     -0.217215
  H      -2.301835     -5.081265      0.656067
  H      -2.286547     -5.044637     -1.100589
  C      -0.845902     -6.415387     -0.238116
  H      -0.212809     -6.509736      0.651351
  H      -0.193301     -6.469815     -1.116752
  C       1.553504      2.511933     -0.046606
  H       2.211021      2.484958      0.832648
  H       2.232061      2.511813     -0.909979
  C       0.750474      3.822014     -0.036147
  H       0.105361      3.870902     -0.923381
  H       0.084996      3.845297      0.836938
  C       1.657834      5.065227     -0.007147
  H       2.304874      5.022269      0.879951
  H       2.327749      5.046713     -0.877945
  C       0.871154      6.387976      0.000939
  H       0.200697      6.405471      0.871534
  H       0.224756      6.430177     -0.886849
  C       1.773941      7.634144      0.030704
  H       2.442887      7.627036     -0.839358
  H       2.417177      7.603737      0.919451
  C       0.964463      8.963164      0.036488
  H       0.323854      8.977674     -0.855362
  H       0.297037      8.953751      0.908535
  C       1.825864     10.190007      0.066240
  H       2.192894     10.590708      1.006515
  H       2.220659     10.616394     -0.851208
  C       4.066492     -0.153706     -0.095147
  H      -5.108664      0.175163     -0.117826
  H       5.131232     -0.204226     -0.093239
  H      -1.515951     -7.280914     -0.265020
