48
Coordinates from ORCA-job opt E -815.786311189295
  C      -4.047444      0.098623      0.003081
  C      -2.832346      0.048376      0.004043
  C       2.832348     -0.048076      0.001585
  C      -1.400467      0.000000      0.000000
  C      -0.718383     -1.242662     -0.055174
  C       0.676681     -1.208025     -0.052821
  C       1.400467     -0.000000     -0.000000
  C       0.718336      1.242921      0.049494
  C      -0.676717      1.208302      0.049456
  H       1.245445     -2.136743     -0.094290
  H      -1.245463      2.137160      0.087417
  C      -1.507912     -2.536332     -0.113430
  H      -2.221498     -2.465765     -0.954536
  H      -2.147120     -2.592923      0.787274
  C      -0.703761     -3.832630     -0.242918
  H      -0.067876     -3.789577     -1.146441
  H      -0.014130     -3.936675      0.615049
  C      -1.599139     -5.075622     -0.317144
  H      -2.236724     -5.118664      0.585349
  H      -2.292643     -4.972966     -1.172375
  C      -0.810121     -6.380376     -0.451283
  H      -0.133698     -6.530554      0.407856
  H      -0.188937     -6.380096     -1.363581
  C       1.507733      2.537123      0.097178
  H       2.139813      2.523874      1.004550
  H       2.227963      2.530305     -0.740987
  C       0.703512      3.839538      0.058684
  H       0.064690      3.856539     -0.843414
  H       0.017076      3.885378      0.923986
  C       1.600165      5.083376      0.060907
  H       2.237608      5.074402      0.965285
  H       2.295268      5.030390     -0.798464
  C       0.820991      6.401890      0.000000
  H       0.134294      6.462737      0.865862
  H       0.174279      6.401204     -0.898175
  C       1.717133      7.644832     -0.025040
  H       2.408410      7.577708     -0.887170
  H       2.359481      7.652160      0.876487
  C       0.941333      8.964701     -0.103513
  H       0.294087      8.952242     -1.000398
  H       0.256387      9.037102      0.762025
  C       1.847080     10.198227     -0.143452
  H       2.483228     10.257343      0.756724
  H       2.518366     10.173608     -1.019408
  C       4.047388     -0.099544     -0.000070
  H      -5.118987      0.142550      0.004062
  H       5.118984     -0.142303     -0.000181
  H      -1.480137     -7.253819     -0.504361
48
Coordinates from ORCA-job opt E -815.792331319602
  C      -4.043537      0.108708     -0.030076
  C      -2.828617      0.054754     -0.028925
  C       2.835769     -0.058626     -0.025822
  C      -1.396946      0.002002     -0.032654
  C      -0.718444     -1.243052     -0.076456
  C       0.676702     -1.212327     -0.073575
  C       1.404090     -0.006047     -0.030278
  C       0.725517      1.239023      0.012042
  C      -0.669599      1.208362      0.010383
  H       1.242685     -2.143062     -0.105707
  H      -1.235656      2.139047      0.043047
  C      -1.511067     -2.535345     -0.120377
  H      -2.221870     -2.474769     -0.964606
  H      -2.153203     -2.577770      0.779036
  C      -0.709104     -3.834921     -0.228265
  H      -0.069720     -3.806942     -1.129926
  H      -0.022876     -3.927233      0.633727
  C      -1.606250     -5.077328     -0.286934
  H      -2.247720     -5.105187      0.613421
  H      -2.295999     -4.987293     -1.146619
  C      -0.818464     -6.385032     -0.396782
  H      -0.146475     -6.522445      0.468001
  H      -0.192781     -6.400220     -1.305927
  C       1.518119      2.531313      0.060362
  H       2.150977      2.514917      0.967135
  H       2.237411      2.525624     -0.778659
  C       0.715208      3.834627      0.028370
  H       0.076154      3.858083     -0.873366
  H       0.029009      3.875296      0.893999
  C       1.612218      5.078214      0.040638
  H       2.250807      5.060357      0.944020
  H       2.306054      5.035621     -0.820261
  C       0.829666      6.395084     -0.003065
  H       0.143869      6.442825      0.864021
  H       0.182598      6.406084     -0.900679
  C       1.725955      7.638736     -0.009902
  H       2.415427      7.588345     -0.873933
  H       2.368787      7.633300      0.890650
  C       0.936271      8.957680     -0.064652
  H       0.289981      8.957034     -0.962754
  H       0.253493      9.009599      0.804467
  C       1.841023     10.172885     -0.081719
  H       2.430815     10.338721      0.837000
  H       2.466406     10.286615     -0.984710
  C       4.050646     -0.113736     -0.024845
  H      -5.114958      0.156009     -0.029212
  H       5.122110     -0.159957     -0.022598
  H      -1.489438     -7.258313     -0.439305
48
Coordinates from ORCA-job opt E -815.795244487541
  C      -4.036367      0.120754     -0.065200
  C      -2.821683      0.061937     -0.059724
  C       2.842167     -0.073343     -0.048966
  C      -1.390271      0.003437     -0.058158
  C      -0.716587     -1.244456     -0.092622
  C       0.678691     -1.218908     -0.088410
  C       1.410736     -0.015140     -0.051625
  C       0.736922      1.232734     -0.017663
  C      -0.658294      1.207170     -0.021802
  H       1.241088     -2.151949     -0.114614
  H      -1.220890      2.140119      0.002783
  C      -1.514107     -2.534076     -0.128178
  H      -2.218548     -2.480846     -0.978251
  H      -2.163020     -2.562752      0.766859
  C      -0.716663     -3.838075     -0.213210
  H      -0.070176     -3.825369     -1.110121
  H      -0.037555     -3.921102      0.655341
  C      -1.618024     -5.077805     -0.261805
  H      -2.267578     -5.090103      0.633097
  H      -2.299856     -4.998199     -1.128798
  C      -0.833972     -6.389745     -0.344894
  H      -0.170886     -6.516474      0.528344
  H      -0.199614     -6.420871     -1.247612
  C       1.533861      2.522720      0.025921
  H       2.170805      2.504136      0.929727
  H       2.249117      2.516025     -0.816561
  C       0.733472      3.827864      0.001050
  H       0.091834      3.857063     -0.898603
  H       0.049720      3.864807      0.868790
  C       1.630528      5.071742      0.019249
  H       2.273571      5.045682      0.919238
  H       2.319927      5.038869     -0.845461
  C       0.845057      6.387902     -0.005557
  H       0.162560      6.422401      0.864727
  H       0.194719      6.409395     -0.900521
  C       1.738494      7.635394      0.002004
  H       2.422334      7.604119     -0.866053
  H       2.384612      7.620133      0.898928
  C       0.935723      8.957108     -0.026696
  H       0.288282      8.962508     -0.922858
  H       0.258947      8.983042      0.847164
  C       1.818686     10.162849     -0.025700
  H       2.343907     10.421893      0.901987
  H       2.373633     10.401750     -0.941401
  C       4.056835     -0.132884     -0.049297
  H      -5.107568      0.172543     -0.068062
  H       5.128097     -0.183474     -0.048157
  H      -1.507621     -7.261272     -0.380901
48
Coordinates from ORCA-job opt E -815.796250604016
  C      -4.033073      0.126516     -0.091599
  C      -2.818520      0.065065     -0.085237
  C       2.844932     -0.082684     -0.067896
  C      -1.387238      0.003411     -0.082336
  C      -0.716307     -1.246157     -0.109143
  C       0.678999     -1.223606     -0.103612
  C       1.413651     -0.021254     -0.072535
  C       0.742662      1.228248     -0.044112
  C      -0.652636      1.205666     -0.050071
  H       1.239375     -2.158022     -0.124237
  H      -1.213295      2.139869     -0.030185
  C      -1.516689     -2.534143     -0.138797
  H      -2.212585     -2.488750     -0.996385
  H      -2.174562     -2.550895      0.749932
  C      -0.721806     -3.840972     -0.200573
  H      -0.067089     -3.841579     -1.091569
  H      -0.050941     -3.914401      0.675247
  C      -1.625685     -5.079125     -0.241893
  H      -2.284850     -5.077690      0.646042
  H      -2.298035     -5.009974     -1.117141
  C      -0.843916     -6.393909     -0.298297
  H      -0.191081     -6.510039      0.584082
  H      -0.199498     -6.438960     -1.193267
  C       1.542651      2.516546     -0.004908
  H       2.186863      2.494686      0.893624
  H       2.251041      2.510201     -0.853207
  C       0.744876      3.823368     -0.019674
  H       0.099457      3.859022     -0.916387
  H       0.064940      3.856714      0.851277
  C       1.643537      5.066042      0.002135
  H       2.293139      5.031694      0.897146
  H       2.326428      5.040398     -0.867930
  C       0.858613      6.382865     -0.004801
  H       0.180847      6.408069      0.869572
  H       0.203665      6.414150     -0.896157
  C       1.751334      7.630586      0.011734
  H       2.427773      7.614226     -0.862256
  H       2.402960      7.607496      0.904289
  C       0.944031      8.955802      0.006088
  H       0.291921      8.961627     -0.887069
  H       0.273062      8.957010      0.885194
  C       1.807910     10.168692      0.018578
  H       2.276117     10.491792      0.953951
  H       2.295300     10.497441     -0.904947
  C       4.059481     -0.144558     -0.066312
  H      -5.104146      0.180858     -0.095171
  H       5.130614     -0.197734     -0.063480
  H      -1.519185     -7.264351     -0.329982
48
Coordinates from ORCA-job opt E -815.796578190941
  C      -4.034010      0.126350     -0.107137
  C      -2.819480      0.064537     -0.099425
  C       2.843834     -0.085558     -0.079678
  C      -1.388220      0.002321     -0.094611
  C      -0.717819     -1.247627     -0.118721
  C       0.677456     -1.225731     -0.112601
  C       1.412561     -0.023662     -0.083492
  C       0.742195      1.226245     -0.059428
  C      -0.653115      1.204383     -0.065988
  H       1.237440     -2.160424     -0.131010
  H      -1.213386      2.138910     -0.049043
  C      -1.518708     -2.535267     -0.147345
  H      -2.205965     -2.495535     -1.012250
  H      -2.185489     -2.545291      0.734717
  C      -0.723921     -3.842837     -0.192054
  H      -0.062314     -3.851360     -1.077886
  H      -0.059931     -3.908962      0.689583
  C      -1.627863     -5.081018     -0.230401
  H      -2.295045     -5.071549      0.651473
  H      -2.292239     -5.019459     -1.112276
  C      -0.846043     -6.396497     -0.268009
  H      -0.201501     -6.504966      0.621409
  H      -0.193368     -6.449546     -1.156531
  C       1.543385      2.513800     -0.025117
  H       2.195761      2.489720      0.867353
  H       2.244148      2.508019     -0.879849
  C       0.747388      3.821606     -0.031073
  H       0.098955      3.862426     -0.925414
  H       0.070656      3.852390      0.842497
  C       1.648725      5.062166     -0.007583
  H       2.303395      5.021664      0.883448
  H       2.326574      5.039611     -0.881663
  C       0.867346      6.380926     -0.003462
  H       0.192322      6.402451      0.873240
  H       0.209819      6.419617     -0.892755
  C       1.763145      7.624914      0.018016
  H       2.435045      7.615613     -0.859697
  H       2.418346      7.596170      0.907896
  C       0.957970      8.952836      0.025504
  H       0.303661      8.959299     -0.866361
  H       0.289556      8.940075      0.906788
  C       1.812457     10.173238      0.045577
  H       2.232652     10.539297      0.986912
  H       2.247097     10.560038     -0.880772
  C       4.058388     -0.147337     -0.078608
  H      -5.105050      0.181244     -0.111845
  H       5.129499     -0.200966     -0.076263
  H      -1.521267     -7.267016     -0.298337
48
Coordinates from ORCA-job opt E -815.796642030035
  C      -4.033275      0.126720     -0.114010
  C      -2.818749      0.064702     -0.107307
  C       2.844502     -0.087282     -0.086880
  C      -1.387502      0.002092     -0.103383
  C      -0.717574     -1.248138     -0.125795
  C       0.677728     -1.226805     -0.119497
  C       1.413247     -0.024947     -0.092124
  C       0.743273      1.225240     -0.068795
  C      -0.652007      1.203918     -0.075306
  H       1.237380     -2.161716     -0.136261
  H      -1.211911      2.138702     -0.058678
  C      -1.519148     -2.535385     -0.153972
  H      -2.200210     -2.499045     -1.024000
  H      -2.192239     -2.540992      0.723233
  C      -0.725095     -3.843739     -0.187748
  H      -0.059651     -3.857669     -1.070622
  H      -0.065031     -3.905386      0.697155
  C      -1.629803     -5.081438     -0.223665
  H      -2.301158     -5.066822      0.654961
  H      -2.289922     -5.023986     -1.109012
  C      -0.848861     -6.397712     -0.250723
  H      -0.208610     -6.502055      0.642278
  H      -0.192061     -6.455779     -1.135882
  C       1.544797      2.512550     -0.036629
  H       2.203581      2.486341      0.850981
  H       2.239465      2.508569     -0.896431
  C       0.748958      3.820440     -0.034971
  H       0.098070      3.864652     -0.927378
  H       0.074624      3.848200      0.840539
  C       1.651054      5.060409     -0.010341
  H       2.308570      5.016966      0.878438
  H       2.326140      5.039674     -0.886622
  C       0.871196      6.380032     -0.000789
  H       0.197292      6.399699      0.876854
  H       0.212323      6.421764     -0.889003
  C       1.768172      7.622359      0.022528
  H       2.438465      7.615433     -0.856531
  H       2.425275      7.591410      0.911010
  C       0.963956      8.949957      0.034774
  H       0.308970      8.957968     -0.856677
  H       0.296142      8.933474      0.916552
  C       1.815097     10.174000      0.057861
  H       2.208158     10.562289      1.001735
  H       2.221143     10.588636     -0.869149
  C       4.059053     -0.149062     -0.084449
  H      -5.104297      0.181974     -0.117817
  H       5.130144     -0.203108     -0.080970
  H      -1.524632     -7.267848     -0.279753
48
Coordinates from ORCA-job opt E -815.796652652192
  C      -4.033047      0.126492     -0.116379
  C      -2.818522      0.064512     -0.109167
  C       2.844717     -0.087851     -0.089134
  C      -1.387281      0.001809     -0.104438
  C      -0.717460     -1.248463     -0.127417
  C       0.677850     -1.227271     -0.121117
  C       1.413466     -0.025476     -0.093359
  C       0.743595      1.224800     -0.070786
  C      -0.651688      1.203593     -0.077066
  H       1.237430     -2.162234     -0.138101
  H      -1.211469      2.138432     -0.060721
  C      -1.519210     -2.535575     -0.156698
  H      -2.196936     -2.500150     -1.029422
  H      -2.195653     -2.539980      0.717874
  C      -0.725367     -3.844169     -0.186366
  H      -0.058535     -3.859975     -1.068166
  H      -0.066722     -3.904189      0.699707
  C      -1.630351     -5.081694     -0.221541
  H      -2.302834     -5.065613      0.656192
  H      -2.289299     -5.025303     -1.107832
  C      -0.849776     -6.398241     -0.245778
  H      -0.210556     -6.501516      0.648085
  H      -0.192008     -6.457716     -1.130124
  C       1.545164      2.512158     -0.040114
  H       2.207606      2.485090      0.844681
  H       2.236337      2.509099     -0.902794
  C       0.749259      3.820038     -0.034609
  H       0.097042      3.865696     -0.925978
  H       0.076176      3.846200      0.841894
  C       1.651465      5.059924     -0.009700
  H       2.309694      5.015886      0.878515
  H       2.325884      5.039445     -0.886524
  C       0.872077      6.379860      0.000762
  H       0.197990      6.399206      0.878279
  H       0.213116      6.421999     -0.887390
  C       1.769306      7.621978      0.024465
  H       2.440100      7.614509     -0.854243
  H       2.426586      7.590575      0.912818
  C       0.965830      8.948942      0.036354
  H       0.311356      8.958765     -0.855471
  H       0.297177      8.934181      0.917544
  C       1.817717     10.173356      0.060203
  H       2.200393     10.570439      1.004703
  H       2.214637     10.597043     -0.866684
  C       4.059280     -0.149424     -0.087488
  H      -5.104066      0.181832     -0.120647
  H       5.130364     -0.203565     -0.084764
  H      -1.525792     -7.268201     -0.274329
48
Coordinates from ORCA-job opt E -815.796655732567
  C      -4.033054      0.126195     -0.119079
  C      -2.818518      0.064361     -0.112552
  C       2.844728     -0.087846     -0.092621
  C      -1.387272      0.001709     -0.108441
  C      -0.717427     -1.248565     -0.130610
  C       0.677882     -1.227348     -0.124369
  C       1.413481     -0.025523     -0.097459
  C       0.743591      1.224741     -0.074874
  C      -0.651698      1.203505     -0.081097
  H       1.237475     -2.162317     -0.140650
  H      -1.211474      2.138342     -0.064642
  C      -1.519156     -2.535700     -0.159269
  H      -2.194711     -2.501852     -1.033770
  H      -2.197758     -2.538505      0.713600
  C      -0.725303     -3.844384     -0.184926
  H      -0.057803     -3.862353     -1.066183
  H      -0.067332     -3.902226      0.701789
  C      -1.630326     -5.081945     -0.217866
  H      -2.302994     -5.064119      0.659688
  H      -2.289073     -5.027209     -1.104414
  C      -0.849844     -6.398590     -0.239438
  H      -0.210642     -6.500162      0.654634
  H      -0.192067     -6.459840     -1.123657
  C       1.545104      2.512164     -0.044469
  H       2.209952      2.484037      0.838449
  H       2.233955      2.510314     -0.909048
  C       0.749056      3.819962     -0.035528
  H       0.095864      3.867129     -0.926112
  H       0.076881      3.844360      0.841717
  C       1.651156      5.059883     -0.009525
  H       2.309437      5.015115      0.878617
  H       2.325547      5.040114     -0.886404
  C       0.871763      6.379803      0.001947
  H       0.197260      6.398286      0.879166
  H       0.213040      6.422609     -0.886360
  C       1.768923      7.622125      0.027026
  H       2.440684      7.614427     -0.850961
  H       2.425825      7.589688      0.915632
  C       0.966214      8.948686      0.038879
  H       0.312473      8.961161     -0.853435
  H       0.296497      8.935674      0.919272
  C       1.819909     10.172341      0.064273
  H       2.199567     10.571437      1.009183
  H       2.215557     10.599172     -0.861757
  C       4.059302     -0.149194     -0.090376
  H      -5.104077      0.181500     -0.122780
  H       5.130384     -0.203360     -0.087197
  H      -1.525935     -7.268545     -0.266275
48
Coordinates from ORCA-job opt E -815.796656735506
  C      -4.033095      0.125995     -0.120550
  C      -2.818554      0.064283     -0.113733
  C       2.844701     -0.087698     -0.094014
  C      -1.387308      0.001670     -0.109120
  C      -0.717415     -1.248577     -0.131387
  C       0.677891     -1.227304     -0.125201
  C       1.413450     -0.025455     -0.098238
  C       0.743520      1.224786     -0.076040
  C      -0.651774      1.203497     -0.082207
  H       1.237515     -2.162251     -0.141592
  H      -1.211574      2.138326     -0.066066
  C      -1.519082     -2.535740     -0.160319
  H      -2.193391     -2.502424     -1.035822
  H      -2.198917     -2.538057      0.711570
  C      -0.725170     -3.844428     -0.184263
  H      -0.057419     -3.863303     -1.065313
  H      -0.067448     -3.901298      0.702698
  C      -1.630154     -5.082043     -0.216172
  H      -2.302557     -5.063679      0.661573
  H      -2.289170     -5.027876     -1.102556
  C      -0.849650     -6.398680     -0.237162
  H      -0.209987     -6.499597      0.656655
  H      -0.192325     -6.460562     -1.121673
  C       1.544976      2.512262     -0.046310
  H       2.211265      2.483799      0.835489
  H       2.232417      2.510877     -0.912033
  C       0.748806      3.819980     -0.035637
  H       0.094974      3.867835     -0.925718
  H       0.077234      3.843479      0.842094
  C       1.650750      5.059985     -0.009203
  H       2.308780      5.015134      0.879125
  H       2.325397      5.040432     -0.885895
  C       0.871144      6.379748      0.002295
  H       0.196174      6.397851      0.879166
  H       0.212832      6.422731     -0.886310
  C       1.768137      7.622332      0.028249
  H       2.440869      7.614214     -0.849002
  H       2.424364      7.589422      0.917345
  C       0.965992      8.948773      0.039424
  H       0.313046      8.962787     -0.853435
  H       0.295262      8.937141      0.919053
  C       1.821040     10.171631      0.065838
  H       2.200965     10.570215      1.010891
  H       2.218733     10.598274     -0.859437
  C       4.059287     -0.148837     -0.092234
  H      -5.104117      0.181270     -0.124553
  H       5.130370     -0.203000     -0.089533
  H      -1.525743     -7.268664     -0.263008
