48
Coordinates from ORCA-job opt_cc-pVDZ E -815.796656732240
  C      -4.033095      0.125995     -0.120550
  C      -2.818554      0.064283     -0.113733
  C       2.844701     -0.087698     -0.094014
  C      -1.387308      0.001670     -0.109120
  C      -0.717415     -1.248577     -0.131387
  C       0.677891     -1.227304     -0.125201
  C       1.413450     -0.025455     -0.098238
  C       0.743520      1.224786     -0.076040
  C      -0.651774      1.203497     -0.082207
  H       1.237515     -2.162251     -0.141592
  H      -1.211574      2.138326     -0.066066
  C      -1.519082     -2.535740     -0.160319
  H      -2.193391     -2.502424     -1.035822
  H      -2.198917     -2.538057      0.711570
  C      -0.725170     -3.844428     -0.184263
  H      -0.057419     -3.863303     -1.065313
  H      -0.067448     -3.901298      0.702698
  C      -1.630154     -5.082043     -0.216172
  H      -2.302557     -5.063679      0.661573
  H      -2.289170     -5.027876     -1.102556
  C      -0.849650     -6.398680     -0.237162
  H      -0.209987     -6.499597      0.656655
  H      -0.192325     -6.460562     -1.121673
  C       1.544976      2.512262     -0.046310
  H       2.211265      2.483799      0.835489
  H       2.232417      2.510877     -0.912033
  C       0.748806      3.819980     -0.035637
  H       0.094974      3.867835     -0.925718
  H       0.077234      3.843479      0.842094
  C       1.650750      5.059985     -0.009203
  H       2.308780      5.015134      0.879125
  H       2.325397      5.040432     -0.885895
  C       0.871144      6.379748      0.002295
  H       0.196174      6.397851      0.879166
  H       0.212832      6.422731     -0.886310
  C       1.768137      7.622332      0.028249
  H       2.440869      7.614214     -0.849002
  H       2.424364      7.589422      0.917345
  C       0.965992      8.948773      0.039424
  H       0.313046      8.962787     -0.853435
  H       0.295262      8.937141      0.919053
  C       1.821040     10.171631      0.065838
  H       2.200965     10.570215      1.010891
  H       2.218733     10.598274     -0.859437
  C       4.059287     -0.148837     -0.092234
  H      -5.104117      0.181270     -0.124553
  H       5.130370     -0.203000     -0.089533
  H      -1.525743     -7.268664     -0.263008
48
Coordinates from ORCA-job opt_cc-pVDZ E -815.796656977920
  C      -4.033080      0.126001     -0.121548
  C      -2.818536      0.064328     -0.114981
  C       2.844718     -0.087648     -0.095173
  C      -1.387290      0.001722     -0.110579
  C      -0.717398     -1.248535     -0.132435
  C       0.677909     -1.227259     -0.126251
  C       1.413467     -0.025401     -0.099658
  C       0.743536      1.224841     -0.077555
  C      -0.651756      1.203548     -0.083753
  H       1.237533     -2.162213     -0.142332
  H      -1.211559      2.138375     -0.067685
  C      -1.519068     -2.535706     -0.160991
  H      -2.192925     -2.502924     -1.036866
  H      -2.199353     -2.537470      0.710545
  C      -0.725160     -3.844420     -0.183718
  H      -0.057208     -3.864011     -1.064600
  H      -0.067642     -3.900582      0.703440
  C      -1.630143     -5.082054     -0.214836
  H      -2.302560     -5.063105      0.662886
  H      -2.289147     -5.028488     -1.101266
  C      -0.849633     -6.398703     -0.234918
  H      -0.209902     -6.498953      0.658925
  H      -0.192376     -6.461243     -1.119433
  C       1.544993      2.512310     -0.047940
  H       2.211758      2.483614      0.833487
  H       2.231963      2.511170     -0.914040
  C       0.748808      3.820008     -0.036456
  H       0.094729      3.868291     -0.926329
  H       0.077484      3.843063      0.841477
  C       1.650713      5.060034     -0.009632
  H       2.308710      5.014913      0.878706
  H       2.325390      5.040811     -0.886305
  C       0.871015      6.379724      0.002331
  H       0.195936      6.397406      0.879128
  H       0.212835      6.423112     -0.886352
  C       1.767957      7.622335      0.029020
  H       2.440916      7.614574     -0.848061
  H       2.423918      7.589030      0.918301
  C       0.965872      8.948839      0.040560
  H       0.313202      8.963270     -0.852497
  H       0.294853      8.936761      0.919966
  C       1.820831     10.171661      0.067843
  H       2.201274     10.569149      1.013131
  H       2.219595     10.598163     -0.857016
  C       4.059305     -0.148728     -0.093138
  H      -5.104104      0.181279     -0.125361
  H       5.130387     -0.202926     -0.090250
  H      -1.525724     -7.268710     -0.260063
