49
Coordinates from ORCA-job opt_EPRII E -928.919402656370
  C      -4.099903      0.083492     -0.018353
  C      -2.815946      0.043661     -0.012330
  C       2.806008     -0.004269     -0.008539
  C      -1.423131      0.006681     -0.011521
  C      -0.708303     -1.246812     -0.013959
  C       0.675892     -1.194656     -0.012684
  C       1.390969      0.032616     -0.009322
  C       0.692187      1.284040     -0.006826
  C      -0.689714      1.234894     -0.008082
  H       1.259776     -2.114722     -0.014385
  H      -1.277365      2.152363     -0.006417
  C      -1.482678     -2.545270     -0.017742
  H      -2.162956     -2.531884     -0.888087
  H      -2.164001     -2.536305      0.851848
  C      -0.664773     -3.838900     -0.020463
  H      -0.001060     -3.863836     -0.904705
  H      -0.002550     -3.868472      0.864757
  C      -1.549765     -5.091581     -0.024486
  H      -2.216738     -5.067647      0.856694
  H      -2.214979     -5.063238     -0.906864
  C      -0.747242     -6.394947     -0.026958
  H      -0.098785     -6.468624      0.863263
  H      -0.096713     -6.463963     -0.916039
  C       1.475610      2.580851     -0.003105
  H       2.150780      2.571663      0.872485
  H       2.151902      2.575969     -0.877872
  C       0.660276      3.876516     -0.000466
  H      -0.001813      3.904739     -0.885019
  H      -0.003430      3.900164      0.883007
  C       1.545553      5.128838      0.003581
  H       2.210398      5.101571      0.886923
  H       2.212314      5.105900     -0.878438
  C       0.742544      6.432044      0.005924
  H       0.091762      6.499753      0.894507
  H       0.094086      6.504395     -0.883993
  C       4.030665     -0.051608     -0.009917
  H      -1.409442     -7.275742     -0.030044
  H       1.404248      7.313240      0.009096
  C       5.453353     -0.107226     -0.009647
  C       6.121835     -1.352501     -0.012193
  C       7.514506     -1.401458     -0.011853
  C       8.262259     -0.217737     -0.009063
  C       7.609924      1.021237     -0.006590
  C       6.217754      1.081653     -0.006879
  H       9.353772     -0.260949     -0.008833
  H       8.191473      1.945911     -0.004438
  H       5.533939     -2.272105     -0.014369
  H       5.703998      2.044629     -0.004992
  H       8.021809     -2.368853     -0.013791
49
Coordinates from ORCA-job opt_EPRII E -928.920470104157
  C      -4.111583      0.088359     -0.018306
  C      -2.824606      0.048722     -0.012440
  C       2.807242     -0.004948     -0.008641
  C      -1.428308      0.009808     -0.011768
  C      -0.713593     -1.247466     -0.014123
  C       0.673316     -1.196533     -0.012801
  C       1.390135      0.033053     -0.009404
  C       0.691298      1.287857     -0.006865
  C      -0.693155      1.240497     -0.008157
  H       1.252869     -2.112537     -0.014485
  H      -1.276385      2.153909     -0.006448
  C      -1.489796     -2.548325     -0.017932
  H      -2.164886     -2.536221     -0.884272
  H      -2.166173     -2.540515      0.847460
  C      -0.667560     -3.843424     -0.020455
  H      -0.008091     -3.867920     -0.899760
  H      -0.009879     -3.872446      0.860054
  C      -1.552308     -5.100753     -0.024585
  H      -2.214821     -5.078769      0.851380
  H      -2.212763     -5.074464     -0.901983
  C      -0.744639     -6.406358     -0.026860
  H      -0.100714     -6.477400      0.857834
  H      -0.098301     -6.472812     -0.910149
  C       1.476799      2.586921     -0.003056
  H       2.146971      2.578703      0.868393
  H       2.148173      2.583070     -0.873613
  C       0.657354      3.884166     -0.000383
  H      -0.000402      3.911950     -0.879997
  H      -0.002138      3.907275      0.878063
  C       1.542388      5.141175      0.003840
  H       2.202465      5.115868      0.882274
  H       2.204496      5.120328     -0.873181
  C       0.734357      6.446676      0.006247
  H       0.087792      6.511812      0.889035
  H       0.090251      6.516608     -0.877971
  C       4.034750     -0.052878     -0.010014
  H      -1.400806     -7.283120     -0.030033
  H       1.390050      7.323863      0.009544
  C       5.460444     -0.110289     -0.009763
  C       6.128276     -1.360222     -0.011673
  C       7.524898     -1.411805     -0.011342
  C       8.277198     -0.225447     -0.009146
  C       7.624312      1.018516     -0.007271
  C       6.228144      1.080949     -0.007593
  H       9.363071     -0.270070     -0.008905
  H       8.204227      1.937524     -0.005580
  H       5.541624     -2.274152     -0.013369
  H       5.718249      2.039768     -0.006176
  H       8.028065     -2.374990     -0.012801
49
Coordinates from ORCA-job opt_EPRII E -928.920521011770
  C      -4.113503      0.089686     -0.018548
  C      -2.825634      0.051415     -0.012518
  C       2.807547     -0.005621     -0.008535
  C      -1.428372      0.011668     -0.011631
  C      -0.714846     -1.246594     -0.014037
  C       0.672768     -1.197207     -0.012667
  C       1.390002      0.032851     -0.009242
  C       0.692076      1.288577     -0.006748
  C      -0.693023      1.242926     -0.008085
  H       1.251068     -2.113623     -0.014360
  H      -1.275115      2.156699     -0.006448
  C      -1.492721     -2.547530     -0.017967
  H      -2.165679     -2.536104     -0.885030
  H      -2.167207     -2.540424      0.847957
  C      -0.666971     -3.842084     -0.020394
  H      -0.008913     -3.866278     -0.899743
  H      -0.010998     -3.870858      0.860381
  C      -1.552488     -5.100672     -0.024717
  H      -2.213581     -5.080066      0.851342
  H      -2.211218     -5.075703     -0.902438
  C      -0.740929     -6.406149     -0.026890
  H      -0.097973     -6.474674      0.857911
  H      -0.095201     -6.469989     -0.910020
  C       1.479109      2.587808     -0.002952
  H       2.147284      2.580345      0.869018
  H       2.148568      2.584652     -0.873964
  C       0.655959      3.884384     -0.000363
  H      -0.000296      3.911753     -0.880139
  H      -0.002177      3.907093      0.878137
  C       1.541445      5.142859      0.003934
  H       2.199782      5.119080      0.882673
  H       2.201955      5.123548     -0.873282
  C       0.729239      6.448039      0.006276
  H       0.083283      6.510490      0.888933
  H       0.085921      6.515324     -0.877951
  C       4.035567     -0.053373     -0.009926
  H      -1.395952     -7.283092     -0.030240
  H       1.383543      7.325584      0.009654
  C       5.461856     -0.111676     -0.009730
  C       6.128219     -1.363121     -0.011399
  C       7.525707     -1.415982     -0.011156
  C       8.279704     -0.229332     -0.009305
  C       7.627275      1.016170     -0.007687
  C       6.230227      1.079850     -0.007913
  H       9.365158     -0.274844     -0.009141
  H       8.207906      1.934291     -0.006270
  H       5.540743     -2.276102     -0.012839
  H       5.721195      2.038734     -0.006699
  H       8.027996     -2.379212     -0.012424
49
Coordinates from ORCA-job opt_EPRII E -928.920534618795
  C      -4.113468      0.087519     -0.018521
  C      -2.825309      0.051843     -0.012693
  C       2.807448     -0.005802     -0.008785
  C      -1.427668      0.012015     -0.011964
  C      -0.714996     -1.246456     -0.014282
  C       0.672849     -1.197853     -0.012922
  C       1.389741      0.032500     -0.009547
  C       0.692425      1.288429     -0.006965
  C      -0.692892      1.243653     -0.008298
  H       1.250665     -2.114570     -0.014569
  H      -1.274615      2.157639     -0.006586
  C      -1.494194     -2.547325     -0.018143
  H      -2.165587     -2.536384     -0.886252
  H      -2.167360     -2.540484      0.848635
  C      -0.666826     -3.841789     -0.020289
  H      -0.009786     -3.866361     -0.900226
  H      -0.012160     -3.870735      0.861290
  C      -1.553500     -5.100457     -0.024614
  H      -2.213627     -5.080425      0.852068
  H      -2.210959     -5.076267     -0.903193
  C      -0.739981     -6.405960     -0.026490
  H      -0.097689     -6.472559      0.858935
  H      -0.094543     -6.468033     -0.909953
  C       1.480703      2.587639     -0.003067
  H       2.147521      2.580450      0.869767
  H       2.148831      2.584890     -0.874926
  C       0.655955      3.884115     -0.000388
  H       0.000816      3.911833     -0.880845
  H      -0.001149      3.906995      0.878738
  C       1.542529      5.142704      0.004083
  H       2.199637      5.119557      0.883624
  H       2.201893      5.124222     -0.873878
  C       0.728305      6.447863      0.006530
  H       0.082704      6.508364      0.889588
  H       0.085471      6.513429     -0.878183
  C       4.035541     -0.052589     -0.010087
  H      -1.395093     -7.282921     -0.029895
  H       1.382628      7.325474      0.010067
  C       5.462024     -0.111075     -0.009836
  C       6.127458     -1.363026     -0.011661
  C       7.525101     -1.416289     -0.011362
  C       8.279598     -0.229687     -0.009299
  C       7.627482      1.016222     -0.007515
  C       6.230272      1.080486     -0.007789
  H       9.365090     -0.275533     -0.009094
  H       8.208675      1.934078     -0.005929
  H       5.539512     -2.275748     -0.013265
  H       5.721506      2.039558     -0.006443
  H       8.027330     -2.379635     -0.012751
49
Coordinates from ORCA-job opt_EPRII E -928.920537624189
  C      -4.113061      0.084883     -0.018671
  C      -2.824932      0.051569     -0.012648
  C       2.807287     -0.005785     -0.008555
  C      -1.427260      0.011864     -0.011655
  C      -0.714844     -1.246531     -0.014097
  C       0.672981     -1.198080     -0.012695
  C       1.389539      0.032335     -0.009217
  C       0.692396      1.288192     -0.006739
  C      -0.692909      1.243607     -0.008105
  H       1.250754     -2.114891     -0.014396
  H      -1.274638      2.157649     -0.006489
  C      -1.494427     -2.547333     -0.018133
  H      -2.165156     -2.536453     -0.886779
  H      -2.167135     -2.540670      0.849022
  C      -0.666932     -3.841887     -0.020276
  H      -0.010254     -3.866646     -0.900542
  H      -0.012830     -3.871137      0.861776
  C      -1.554025     -5.100369     -0.024793
  H      -2.213831     -5.080569      0.852207
  H      -2.210948     -5.076287     -0.903846
  C      -0.740176     -6.405938     -0.026660
  H      -0.098215     -6.471936      0.859128
  H      -0.094806     -6.467255     -0.910303
  C       1.481071      2.587307     -0.002916
  H       2.147363      2.580237      0.870363
  H       2.148735      2.584542     -0.875171
  C       0.656321      3.883932     -0.000368
  H       0.001679      3.911892     -0.881251
  H      -0.000397      3.907164      0.879103
  C       1.543407      5.142267      0.004083
  H       2.200007      5.119305      0.884078
  H       2.202382      5.123862     -0.874243
  C       0.728951      6.447551      0.006393
  H       0.083456      6.507485      0.889647
  H       0.086383      6.512470     -0.878641
  C       4.035320     -0.051700     -0.009907
  H      -1.395577     -7.282778     -0.030236
  H       1.383622      7.324997      0.009947
  C       5.461811     -0.110216     -0.009760
  C       6.126887     -1.362214     -0.011387
  C       7.524418     -1.415571     -0.011202
  C       8.278938     -0.229159     -0.009450
  C       7.627076      1.016701     -0.007869
  C       6.229975      1.081210     -0.008036
  H       9.364500     -0.275122     -0.009331
  H       8.208578      1.934459     -0.006526
  H       5.538760     -2.274886     -0.012751
  H       5.721322      2.040408     -0.006847
  H       8.026739     -2.378962     -0.012436
49
Coordinates from ORCA-job opt_EPRII E -928.920538933324
  C      -4.112901      0.082434     -0.018427
  C      -2.824802      0.051415     -0.012779
  C       2.807200     -0.005790     -0.008969
  C      -1.427154      0.011790     -0.012132
  C      -0.714787     -1.246554     -0.014453
  C       0.673004     -1.198106     -0.013122
  C       1.389431      0.032289     -0.009761
  C       0.692326      1.288092     -0.007104
  C      -0.692949      1.243528     -0.008413
  H       1.250782     -2.114946     -0.014770
  H      -1.274694      2.157592     -0.006644
  C      -1.494394     -2.547318     -0.018326
  H      -2.164883     -2.536630     -0.887185
  H      -2.166985     -2.540566      0.848943
  C      -0.667059     -3.841945     -0.020206
  H      -0.010475     -3.866961     -0.900586
  H      -0.013162     -3.871158      0.862049
  C      -1.554182     -5.100338     -0.024576
  H      -2.213924     -5.080440      0.852517
  H      -2.210914     -5.076449     -0.903824
  C      -0.740383     -6.405954     -0.026169
  H      -0.098587     -6.471608      0.859797
  H      -0.095005     -6.467189     -0.909845
  C       1.481060      2.587129     -0.003147
  H       2.147244      2.579941      0.870252
  H       2.148546      2.584471     -0.875576
  C       0.656576      3.883876     -0.000397
  H       0.002057      3.912110     -0.881414
  H       0.000029      3.907142      0.879250
  C       1.543778      5.142061      0.004201
  H       2.200268      5.118983      0.884324
  H       2.202604      5.123779     -0.874287
  C       0.729466      6.447448      0.006706
  H       0.084054      6.507098      0.890073
  H       0.086976      6.512343     -0.878420
  C       4.035202     -0.050961     -0.010163
  H      -1.395955     -7.282691     -0.029678
  H       1.384372      7.324744      0.010385
  C       5.461676     -0.109603     -0.009887
  C       6.126535     -1.361644     -0.011815
  C       7.523976     -1.415163     -0.011500
  C       8.278571     -0.228936     -0.009318
  C       7.626966      1.016917     -0.007431
  C       6.229952      1.081651     -0.007720
  H       9.364160     -0.275045     -0.009101
  H       8.208707      1.934561     -0.005755
  H       5.538250     -2.274242     -0.013511
  H       5.721450      2.040956     -0.006295
  H       8.026281     -2.378599     -0.012968
49
Coordinates from ORCA-job opt_EPRII E -928.920540310355
  C      -4.112895      0.078568     -0.018687
  C      -2.824784      0.051361     -0.012709
  C       2.807129     -0.005876     -0.008516
  C      -1.427170      0.011801     -0.011592
  C      -0.714825     -1.246532     -0.014124
  C       0.672941     -1.198073     -0.012689
  C       1.389344      0.032254     -0.009110
  C       0.692276      1.288040     -0.006657
  C      -0.692974      1.243480     -0.008047
  H       1.250690     -2.114949     -0.014445
  H      -1.274688      2.157584     -0.006450
  C      -1.494357     -2.547259     -0.018320
  H      -2.164593     -2.536507     -0.887397
  H      -2.167050     -2.540674      0.848887
  C      -0.667238     -3.841952     -0.020222
  H      -0.010574     -3.866935     -0.900587
  H      -0.013547     -3.871335      0.862224
  C      -1.554269     -5.100299     -0.024893
  H      -2.214117     -5.080541      0.852158
  H      -2.210805     -5.076335     -0.904321
  C      -0.740595     -6.405961     -0.026507
  H      -0.099030     -6.471638      0.859642
  H      -0.095090     -6.466963     -0.910123
  C       1.480991      2.586991     -0.002828
  H       2.147067      2.579915      0.870686
  H       2.148494      2.584193     -0.875277
  C       0.656839      3.883862     -0.000329
  H       0.002477      3.912094     -0.881504
  H       0.000272      3.907361      0.879340
  C       1.544043      5.141936      0.004194
  H       2.200391      5.118967      0.884463
  H       2.202928      5.123518     -0.874284
  C       0.729962      6.447435      0.006425
  H       0.084480      6.507149      0.889752
  H       0.087663      6.512186     -0.878866
  C       4.035132     -0.049898     -0.009808
  H      -1.396314     -7.282588     -0.030274
  H       1.385091      7.324567      0.010097
  C       5.461581     -0.108830     -0.009741
  C       6.126118     -1.361009     -0.011272
  C       7.523478     -1.414878     -0.011178
  C       8.278313     -0.228904     -0.009605
  C       7.627110      1.017051     -0.008114
  C       6.230169      1.082160     -0.008194
  H       9.363908     -0.275295     -0.009555
  H       8.209189      1.934498     -0.006910
  H       5.537561     -2.273445     -0.012496
  H       5.721943      2.041627     -0.007075
  H       8.025641     -2.378405     -0.012341
49
Coordinates from ORCA-job opt_EPRII E -928.920541650222
  C      -4.113085      0.073637     -0.018204
  C      -2.824890      0.051463     -0.012975
  C       2.807106     -0.006085     -0.009360
  C      -1.427304      0.011936     -0.012516
  C      -0.714994     -1.246467     -0.014833
  C       0.672777     -1.198020     -0.013556
  C       1.389321      0.032206     -0.010227
  C       0.692314      1.288046     -0.007400
  C      -0.692930      1.243500     -0.008663
  H       1.250439     -2.114950     -0.015211
  H      -1.274541      2.157673     -0.006761
  C      -1.494418     -2.547167     -0.018707
  H      -2.164603     -2.536718     -0.887834
  H      -2.167297     -2.540332      0.848356
  C      -0.667445     -3.841890     -0.020097
  H      -0.010652     -3.867183     -0.900371
  H      -0.013781     -3.870976      0.862393
  C      -1.554353     -5.100241     -0.024427
  H      -2.214347     -5.080188      0.852514
  H      -2.210859     -5.076577     -0.903892
  C      -0.740810     -6.405939     -0.025519
  H      -0.099373     -6.471396      0.860733
  H      -0.095182     -6.467269     -0.909017
  C       1.480981      2.586933     -0.003308
  H       2.147219      2.579608      0.870093
  H       2.148475      2.584347     -0.875776
  C       0.657049      3.883874     -0.000385
  H       0.002570      3.912375     -0.881476
  H       0.000517      3.907167      0.879327
  C       1.544186      5.141911      0.004404
  H       2.200662      5.118683      0.884580
  H       2.203073      5.123698     -0.874088
  C       0.730302      6.447485      0.007035
  H       0.084864      6.507040      0.890398
  H       0.087982      6.512581     -0.878209
  C       4.035162     -0.048660     -0.010298
  H      -1.396602     -7.282494     -0.029107
  H       1.385553      7.324507      0.010933
  C       5.461584     -0.108003     -0.009969
  C       6.125738     -1.360410     -0.012186
  C       7.523062     -1.414769     -0.011836
  C       8.278291     -0.229049     -0.009330
  C       7.627542      1.017125     -0.007149
  C       6.230628      1.082692     -0.007467
  H       9.363866     -0.275817     -0.009089
  H       8.209979      1.934333     -0.005222
  H       5.536832     -2.272616     -0.014134
  H       5.722748      2.042341     -0.005815
  H       8.024952     -2.378429     -0.013531
