49
Coordinates from ORCA-job opt E -928.820441199262
  C      -4.021255      0.105554     -0.005305
  C      -2.818585      0.052359      0.000041
  C       2.818573     -0.051745      0.000063
  C      -1.393659     -0.000000      0.000000
  C      -0.714960     -1.237147      0.000202
  C       0.672358     -1.202059     -0.000021
  C       1.393659     -0.000000     -0.000000
  C       0.714822      1.237125      0.000000
  C      -0.672385      1.202227      0.000269
  H       1.234707     -2.125148     -0.000540
  H      -1.234543      2.125420      0.000154
  C      -1.500316     -2.530051      0.003530
  H      -2.190436     -2.514394     -0.847378
  H      -2.148685     -2.534708      0.887147
  C      -0.693094     -3.826402     -0.030390
  H      -0.055703     -3.845232     -0.921414
  H      -0.018245     -3.868841      0.831866
  C      -1.582505     -5.071453     -0.026825
  H      -2.223927     -5.053486      0.861044
  H      -2.257870     -5.035471     -0.888769
  C      -0.790682     -6.377281     -0.055735
  H      -0.133172     -6.461644      0.813805
  H      -0.163563     -6.440829     -0.949216
  C       1.500315      2.530072     -0.001521
  H       2.169550      2.525160      0.866254
  H       2.169751      2.521989     -0.869080
  C       0.693122      3.826647     -0.004282
  H       0.035552      3.854994     -0.880382
  H       0.038107      3.859943      0.873468
  C       1.582598      5.071538     -0.009791
  H       2.244242      5.047094      0.863125
  H       2.238133      5.042205     -0.886993
  C       0.790535      6.377630     -0.010598
  H       0.152401      6.454821      0.873944
  H       0.143909      6.448638     -0.889462
  C       4.021148     -0.107044     -0.002824
  H      -1.454567     -7.243820     -0.054558
  H       1.454541      7.244042     -0.016837
  C       5.451148     -0.107044     -0.002824
  C       6.129847     -1.344191     -0.002622
  C       7.517165     -1.309103     -0.002845
  C       8.238465     -0.107044     -0.002824
  C       7.559629      1.130082     -0.002824
  C       6.172422      1.095183     -0.002556
  H       9.300699     -0.107044     -0.002824
  H       8.073497      2.019342     -0.002897
  H       5.615979     -2.233451     -0.002550
  H       5.645960      2.036451     -0.002442
  H       8.043626     -2.250371     -0.002959
49
Coordinates from ORCA-job opt E -928.842206296139
  C      -4.081855      0.110232     -0.009115
  C      -2.819047      0.054937     -0.002606
  C       2.809850     -0.040106     -0.000432
  C      -1.411871      0.004195     -0.001402
  C      -0.721150     -1.247901     -0.000640
  C       0.666769     -1.209031     -0.000473
  C       1.388353      0.007548     -0.000515
  C       0.703710      1.257735     -0.000710
  C      -0.682918      1.221295     -0.000846
  H       1.236778     -2.136812     -0.000742
  H      -1.251891      2.149032     -0.001161
  C      -1.503059     -2.543709      0.002378
  H      -2.198482     -2.526355     -0.854255
  H      -2.158811     -2.545686      0.890284
  C      -0.690366     -3.840787     -0.029279
  H      -0.045843     -3.859424     -0.926694
  H      -0.011326     -3.882175      0.841640
  C      -1.579964     -5.088959     -0.026665
  H      -2.228819     -5.070850      0.867014
  H      -2.259496     -5.053441     -0.896775
  C      -0.783039     -6.395255     -0.053385
  H      -0.121220     -6.478662      0.824834
  H      -0.148529     -6.458679     -0.953143
  C       1.491194      2.552634     -0.001613
  H       2.165465      2.546320      0.873585
  H       2.166557      2.543826     -0.875960
  C       0.682033      3.851561     -0.004066
  H       0.019568      3.879926     -0.887378
  H       0.021239      3.884087      0.880350
  C       1.573222      5.098730     -0.008306
  H       2.239990      5.073416      0.872539
  H       2.235176      5.069839     -0.892635
  C       0.777412      6.405931     -0.008719
  H       0.132944      6.482101      0.882583
  H       0.125703      6.477180     -0.895161
  C       4.030059     -0.096891     -0.003344
  H      -1.449979     -7.270800     -0.053061
  H       1.445168      7.280905     -0.013862
  C       5.458809     -0.110660     -0.003449
  C       6.146041     -1.346974     -0.003349
  C       7.539834     -1.334233     -0.003596
  C       8.260780     -0.136539     -0.003739
  C       7.581950      1.095505     -0.003751
  C       6.188204      1.090717     -0.003473
  H       9.350521     -0.145100     -0.003853
  H       8.132474      2.028933     -0.003928
  H       5.596809     -2.280430     -0.003204
  H       5.657782      2.044833     -0.003440
  H       8.071579     -2.288443     -0.003661
49
Coordinates from ORCA-job opt E -928.843781660929
  C      -4.095945      0.101990     -0.012195
  C      -2.815691      0.049897     -0.005434
  C       2.806050     -0.028245     -0.001603
  C      -1.418994      0.003676     -0.004148
  C      -0.717781     -1.252547     -0.002834
  C       0.668904     -1.208966     -0.001682
  C       1.388442      0.014232     -0.001693
  C       0.698756      1.267877     -0.002239
  C      -0.685962      1.227649     -0.003455
  H       1.244127     -2.134370     -0.001390
  H      -1.260774      2.152751     -0.004128
  C      -1.498105     -2.548405     -0.000672
  H      -2.193079     -2.529691     -0.859604
  H      -2.160029     -2.545989      0.884514
  C      -0.685266     -3.845886     -0.026575
  H      -0.035149     -3.865925     -0.921726
  H      -0.009752     -3.886607      0.848969
  C      -1.575767     -5.094012     -0.027179
  H      -2.230702     -5.074039      0.863837
  H      -2.252031     -5.058339     -0.901660
  C      -0.778885     -6.400733     -0.048288
  H      -0.120541     -6.483801      0.834308
  H      -0.138821     -6.465925     -0.945676
  C       1.487193      2.562316     -0.001757
  H       2.161810      2.554244      0.875076
  H       2.164467      2.553044     -0.876533
  C       0.677913      3.861735     -0.003789
  H       0.015430      3.890521     -0.888842
  H       0.014956      3.892834      0.880846
  C       1.569004      5.109471     -0.005386
  H       2.235569      5.082844      0.877480
  H       2.233540      5.081486     -0.889731
  C       0.772012      6.416263     -0.005411
  H       0.124829      6.490916      0.885715
  H       0.120705      6.488399     -0.893749
  C       4.030155     -0.084137     -0.004491
  H      -1.446119     -7.277687     -0.050343
  H       1.439074      7.293403     -0.008203
  C       5.456166     -0.108573     -0.004697
  C       6.146789     -1.343006     -0.004979
  C       7.541396     -1.350404     -0.005336
  C       8.264372     -0.154301     -0.005514
  C       7.587442      1.073989     -0.005320
  C       6.193001      1.092723     -0.004964
  H       9.357473     -0.170472     -0.005846
  H       8.148144      2.010566     -0.005510
  H       5.585797     -2.278355     -0.004914
  H       5.664132      2.048560     -0.004883
  H       8.070051     -2.307455     -0.005542
49
Coordinates from ORCA-job opt E -928.843971874722
  C      -4.099949      0.095464     -0.014949
  C      -2.814811      0.046626     -0.007701
  C       2.805642     -0.019783     -0.003139
  C      -1.421719      0.003809     -0.005924
  C      -0.713400     -1.252595     -0.004861
  C       0.671909     -1.205873     -0.003563
  C       1.390034      0.019646     -0.003298
  C       0.696558      1.273469     -0.003520
  C      -0.686462      1.230155     -0.004895
  H       1.250620     -2.129126     -0.003209
  H      -1.266083      2.152427     -0.005552
  C      -1.492837     -2.548229     -0.003556
  H      -2.185975     -2.529271     -0.864141
  H      -2.159572     -2.542619      0.878144
  C      -0.679875     -3.845183     -0.024148
  H      -0.025475     -3.866066     -0.916122
  H      -0.008375     -3.884424      0.854473
  C      -1.569856     -5.093726     -0.027476
  H      -2.229302     -5.072605      0.860162
  H      -2.242341     -5.058725     -0.904849
  C      -0.772549     -6.399939     -0.043486
  H      -0.117955     -6.481918      0.841947
  H      -0.128377     -6.466254     -0.937819
  C       1.484688      2.567695     -0.002354
  H       2.159407      2.558815      0.874344
  H       2.161996      2.558867     -0.877056
  C       0.674112      3.866202     -0.003348
  H       0.011735      3.894613     -0.888447
  H       0.010617      3.895149      0.880915
  C       1.563338      5.115185     -0.003227
  H       2.229499      5.088300      0.879900
  H       2.228730      5.088803     -0.886947
  C       0.764369      6.420514     -0.002452
  H       0.116007      6.493091      0.887954
  H       0.113613      6.492706     -0.891148
  C       4.030273     -0.074946     -0.005924
  H      -1.438845     -7.277555     -0.047407
  H       1.429362      7.299162     -0.003543
  C       5.454332     -0.108145     -0.006126
  C       6.142860     -1.342854     -0.006850
  C       7.536744     -1.365196     -0.007066
  C       8.264558     -0.170482     -0.006634
  C       7.591716      1.057842     -0.005949
  C       6.198133      1.092067     -0.005736
  H       9.357527     -0.193709     -0.006855
  H       8.158180      1.992710     -0.005620
  H       5.573490     -2.274824     -0.007245
  H       5.671751      2.048655     -0.005251
  H       8.060263     -2.324413     -0.007621
49
Coordinates from ORCA-job opt E -928.843999744560
  C      -4.100109      0.092306     -0.016205
  C      -2.815099      0.045406     -0.008990
  C       2.806231     -0.015171     -0.004249
  C      -1.422464      0.004242     -0.007230
  C      -0.711013     -1.251390     -0.006614
  C       0.673622     -1.203049     -0.005294
  C       1.391094      0.022978     -0.004548
  C       0.695555      1.276166     -0.004358
  C      -0.686683      1.231013     -0.005738
  H       1.254083     -2.125202     -0.005116
  H      -1.269247      2.151509     -0.006042
  C      -1.489904     -2.547294     -0.005993
  H      -2.181167     -2.528876     -0.868081
  H      -2.159844     -2.540054      0.873201
  C      -0.676552     -3.843698     -0.022789
  H      -0.019482     -3.865180     -0.912674
  H      -0.007628     -3.881328      0.857729
  C      -1.565580     -5.092922     -0.027396
  H      -2.227673     -5.071175      0.858148
  H      -2.235654     -5.058992     -0.906530
  C      -0.767449     -6.398463     -0.039891
  H      -0.115106     -6.479096      0.847213
  H      -0.120868     -6.465428     -0.932337
  C       1.483014      2.570748     -0.002756
  H       2.157861      2.561642      0.873695
  H       2.160086      2.562604     -0.877496
  C       0.671267      3.868457     -0.002922
  H       0.008931      3.896512     -0.887937
  H       0.007595      3.895814      0.881128
  C       1.558965      5.118463     -0.001782
  H       2.224844      5.091679      0.881436
  H       2.224770      5.093273     -0.885099
  C       0.758489      6.422711     -0.000533
  H       0.109430      6.493827      0.889382
  H       0.108155      6.494771     -0.889445
  C       4.030740     -0.069627     -0.006862
  H      -1.432792     -7.276694     -0.044570
  H       1.422041      7.302333     -0.000546
  C       5.454069     -0.108329     -0.006968
  C       6.139187     -1.344409     -0.008374
  C       7.532501     -1.374576     -0.008480
  C       8.264550     -0.181449     -0.007272
  C       7.595512      1.048461     -0.005951
  C       6.202583      1.090270     -0.005845
  H       9.357061     -0.209438     -0.007400
  H       8.165020      1.981074     -0.005023
  H       5.564990     -2.273046     -0.009373
  H       5.678090      2.047602     -0.004854
  H       8.052286     -2.335460     -0.009550
49
Coordinates from ORCA-job opt E -928.844009084909
  C      -4.099419      0.090436     -0.016821
  C      -2.815351      0.044982     -0.009781
  C       2.806785     -0.011682     -0.005272
  C      -1.422688      0.004834     -0.008177
  C      -0.709558     -1.250030     -0.008243
  C       0.674731     -1.200554     -0.006982
  C       1.391743      0.025700     -0.005702
  C       0.694811      1.278240     -0.005034
  C      -0.687022      1.231730     -0.006337
  H       1.256354     -2.121995     -0.007155
  H      -1.271812      2.150878     -0.006223
  C      -1.487831     -2.546435     -0.008464
  H      -2.176982     -2.528835     -0.872270
  H      -2.160647     -2.538162      0.868471
  C      -0.673823     -3.842246     -0.021851
  H      -0.014620     -3.864325     -0.910106
  H      -0.006903     -3.878100      0.860206
  C      -1.561727     -5.092263     -0.027084
  H      -2.225777     -5.070062      0.856939
  H      -2.229995     -5.059611     -0.907587
  C      -0.762523     -6.397042     -0.036636
  H      -0.111746     -6.476150      0.851708
  H      -0.114196     -6.464518     -0.927735
  C       1.481476      2.573366     -0.003095
  H       2.156564      2.564198      0.873098
  H       2.158206      2.565963     -0.878032
  C       0.668621      3.870353     -0.002451
  H       0.006204      3.898097     -0.887361
  H       0.004907      3.896355      0.881551
  C       1.555003      5.121250     -0.000593
  H       2.220709      5.094679      0.882708
  H       2.221090      5.097043     -0.883670
  C       0.753215      6.424602      0.000998
  H       0.103593      6.494521      0.890557
  H       0.103220      6.496483     -0.888133
  C       4.031222     -0.065092     -0.007698
  H      -1.426896     -7.275958     -0.041539
  H       1.415626      7.305029      0.001829
  C       5.454223     -0.108514     -0.007715
  C       6.135451     -1.346497     -0.009890
  C       7.528411     -1.382257     -0.009854
  C       8.264489     -0.191130     -0.007715
  C       7.599412      1.040852     -0.005604
  C       6.206907      1.088041     -0.005637
  H       9.356693     -0.223322     -0.007710
  H       8.171622      1.971332     -0.003928
  H       5.557269     -2.272231     -0.011610
  H       5.684278      2.046289     -0.004007
  H       8.044984     -2.344727     -0.011542
49
Coordinates from ORCA-job opt E -928.844011806882
  C      -4.098952      0.089689     -0.017084
  C      -2.815357      0.044982     -0.010282
  C       2.806959     -0.009959     -0.005976
  C      -1.422629      0.005218     -0.008907
  C      -0.709076     -1.249302     -0.009480
  C       0.675160     -1.199312     -0.008240
  C       1.391895      0.027100     -0.006522
  C       0.694442      1.279335     -0.005484
  C      -0.687309      1.232237     -0.006754
  H       1.257252     -2.120469     -0.008723
  H      -1.273080      2.150782     -0.006307
  C      -1.486878     -2.546082     -0.010387
  H      -2.174300     -2.529197     -0.875616
  H      -2.161624     -2.537327      0.865041
  C      -0.672342     -3.841519     -0.021428
  H      -0.011933     -3.864192     -0.908784
  H      -0.006535     -3.876048      0.861530
  C      -1.559551     -5.092024     -0.026625
  H      -2.224572     -5.069451      0.856663
  H      -2.226909     -5.060366     -0.907857
  C      -0.759626     -6.396337     -0.034342
  H      -0.109558     -6.474297      0.854624
  H      -0.110475     -6.464255     -0.924813
  C       1.480595      2.574826     -0.003258
  H       2.155860      2.565597      0.872793
  H       2.157105      2.567938     -0.878368
  C       0.667127      3.871424     -0.002056
  H       0.004643      3.899101     -0.886922
  H       0.003412      3.896668      0.881968
  C       1.552858      5.122767      0.000244
  H       2.218448      5.096296      0.883636
  H       2.219120      5.099091     -0.882718
  C       0.750401      6.425686      0.002006
  H       0.100420      6.494958      0.891357
  H       0.100656      6.497528     -0.887313
  C       4.031439     -0.062195     -0.008226
  H      -1.423440     -7.275675     -0.039023
  H       1.412290      7.306503      0.003370
  C       5.454371     -0.108325     -0.008155
  C       6.132950     -1.347773     -0.010924
  C       7.525814     -1.386181     -0.010795
  C       8.264319     -0.196551     -0.007971
  C       7.601871      1.036893     -0.005279
  C       6.209497      1.086711     -0.005403
  H       9.356438     -0.231195     -0.007886
  H       8.175826      1.966179     -0.003065
  H       5.552543     -2.272009     -0.013180
  H       5.688146      2.045667     -0.003308
  H       8.040596     -2.349617     -0.012953
49
Coordinates from ORCA-job opt E -928.844014025549
  C      -4.098610      0.088769     -0.017490
  C      -2.815242      0.044966     -0.010990
  C       2.807014     -0.008241     -0.006964
  C      -1.422461      0.005570     -0.009895
  C      -0.708695     -1.248680     -0.011223
  C       0.675560     -1.198186     -0.010016
  C       1.391924      0.028474     -0.007659
  C       0.694078      1.280459     -0.006095
  C      -0.687663      1.232847     -0.007331
  H       1.258068     -2.119088     -0.010974
  H      -1.274269      2.150863     -0.006435
  C      -1.485921     -2.545867     -0.013169
  H      -2.170757     -2.529975     -0.880509
  H      -2.163316     -2.536537      0.860185
  C      -0.670770     -3.840911     -0.020953
  H      -0.008906     -3.864635     -0.907223
  H      -0.006332     -3.873657      0.863119
  C      -1.557298     -5.091896     -0.025764
  H      -2.223353     -5.068670      0.856741
  H      -2.223662     -5.061558     -0.907809
  C      -0.756630     -6.395748     -0.031139
  H      -0.107265     -6.472193      0.858488
  H      -0.106661     -6.464445     -0.920968
  C       1.479671      2.576329     -0.003439
  H       2.155171      2.566951      0.872440
  H       2.155917      2.570083     -0.878775
  C       0.665587      3.872540     -0.001492
  H       0.003016      3.900294     -0.886306
  H       0.001895      3.896949      0.882587
  C       1.550720      5.124294      0.001370
  H       2.216146      5.097864      0.884900
  H       2.217199      5.101183     -0.881458
  C       0.747638      6.426822      0.003334
  H       0.097208      6.495396      0.892427
  H       0.098247      6.498732     -0.886250
  C       4.031610     -0.058319     -0.008947
  H      -1.419904     -7.275507     -0.035237
  H       1.409073      7.307990      0.005382
  C       5.454501     -0.107528     -0.008762
  C       6.129865     -1.348841     -0.012531
  C       7.522671     -1.390051     -0.012259
  C       8.263996     -0.202303     -0.008286
  C       7.604732      1.032910     -0.004584
  C       6.212444      1.085593     -0.004847
  H       9.356062     -0.239764     -0.008076
  H       8.180847      1.960861     -0.001453
  H       5.546967     -2.271510     -0.015685
  H       5.692769      2.045502     -0.001946
  H       8.035426     -2.354616     -0.015213
49
Coordinates from ORCA-job opt E -928.844015099092
  C      -4.098624      0.088043     -0.017976
  C      -2.815104      0.044860     -0.011704
  C       2.806968     -0.007594     -0.007804
  C      -1.422302      0.005624     -0.010808
  C      -0.708571     -1.248571     -0.012719
  C       0.675738     -1.197878     -0.011520
  C       1.391864      0.028946     -0.008626
  C       0.693951      1.280877     -0.006610
  C      -0.687831      1.233113     -0.007845
  H       1.258378     -2.118694     -0.012868
  H      -1.274637      2.150990     -0.006576
  C      -1.485516     -2.545915     -0.015528
  H      -2.168136     -2.530791     -0.884659
  H      -2.165053     -2.536104      0.856138
  C      -0.670089     -3.840812     -0.020620
  H      -0.007183     -3.865636     -0.906094
  H      -0.006676     -3.872223      0.864277
  C      -1.556408     -5.091948     -0.024881
  H      -2.223086     -5.068012      0.857141
  H      -2.222144     -5.062571     -0.907442
  C      -0.755486     -6.395662     -0.028475
  H      -0.106524     -6.471009      0.861550
  H      -0.105083     -6.465198     -0.917929
  C       1.479296      2.576891     -0.003540
  H       2.154938      2.567296      0.872237
  H       2.155409      2.571092     -0.878995
  C       0.664965      3.872949     -0.001022
  H       0.002362      3.900949     -0.885817
  H       0.001291      3.896879      0.883092
  C       1.549903      5.124841      0.002305
  H       2.215179      5.098306      0.885953
  H       2.216543      5.102052     -0.880420
  C       0.746611      6.427249      0.004437
  H       0.095866      6.495421      0.893341
  H       0.097513      6.499357     -0.885353
  C       4.031675     -0.055416     -0.009527
  H      -1.418599     -7.275554     -0.031912
  H       1.407921      7.308518      0.007013
  C       5.454548     -0.106323     -0.009235
  C       6.128019     -1.348767     -0.013914
  C       7.520805     -1.391518     -0.013528
  C       8.263757     -0.204900     -0.008532
  C       7.606370      1.031333     -0.003924
  C       6.214100      1.085630     -0.004299
  H       9.355806     -0.243952     -0.008227
  H       8.183813      1.958523      0.000018
  H       5.543783     -2.270639     -0.017871
  H       5.695587      2.046197     -0.000677
  H       8.032400     -2.356736     -0.017203
49
Coordinates from ORCA-job opt E -928.844015466691
  C      -4.098823      0.087661     -0.018413
  C      -2.815038      0.044726     -0.012223
  C       2.806894     -0.008018     -0.008334
  C      -1.422233      0.005428     -0.011370
  C      -0.708680     -1.248869     -0.013644
  C       0.675675     -1.198277     -0.012447
  C       1.391781      0.028548     -0.009211
  C       0.694047      1.280574     -0.006904
  C      -0.687786      1.232963     -0.008148
  H       1.258191     -2.119167     -0.014045
  H      -1.274288      2.151020     -0.006652
  C      -1.485693     -2.546125     -0.017006
  H      -2.166895     -2.531391     -0.887267
  H      -2.166537     -2.535981      0.853618
  C      -0.670348     -3.841113     -0.020438
  H      -0.006901     -3.866813     -0.905485
  H      -0.007509     -3.871854      0.864907
  C      -1.556861     -5.092119     -0.024225
  H      -2.223748     -5.067599      0.857621
  H      -2.222357     -5.063178     -0.906981
  C      -0.756127     -6.395972     -0.026866
  H      -0.107285     -6.470817      0.863290
  H      -0.105642     -6.466190     -0.916206
  C       1.479465      2.576514     -0.003541
  H       2.155137      2.566702      0.872212
  H       2.155583      2.570885     -0.878996
  C       0.665246      3.872643     -0.000744
  H       0.002662      3.900947     -0.885545
  H       0.001577      3.896490      0.883378
  C       1.550341      5.124432      0.002852
  H       2.215517      5.097706      0.886569
  H       2.217058      5.101696     -0.879818
  C       0.747209      6.426951      0.005086
  H       0.096334      6.495049      0.893901
  H       0.098277      6.499305     -0.884806
  C       4.031675     -0.053968     -0.009867
  H      -1.419402     -7.275744     -0.029784
  H       1.408664      7.308113      0.007933
  C       5.454554     -0.105055     -0.009517
  C       6.127694     -1.347720     -0.014817
  C       7.520479     -1.390715     -0.014366
  C       8.263720     -0.204304     -0.008680
  C       7.606657      1.032086     -0.003442
  C       6.214362      1.086655     -0.003882
  H       9.355772     -0.243586     -0.008318
  H       8.184393      1.959139      0.001052
  H       5.543347     -2.269554     -0.019316
  H       5.696283      2.047461      0.000242
  H       8.031866     -2.356051     -0.018536
49
Coordinates from ORCA-job opt E -928.844015489782
  C      -4.098967      0.087649     -0.018603
  C      -2.815047      0.044667     -0.012458
  C       2.806862     -0.008947     -0.008584
  C      -1.422247      0.005174     -0.011616
  C      -0.708894     -1.249265     -0.014028
  C       0.675479     -1.198923     -0.012845
  C       1.391746      0.027780     -0.009474
  C       0.694256      1.279949     -0.007020
  C      -0.687609      1.232598     -0.008258
  H       1.257763     -2.119956     -0.014550
  H      -1.273669      2.150931     -0.006648
  C      -1.486165     -2.546334     -0.017599
  H      -2.166793     -2.531677     -0.888308
  H      -2.167517     -2.535988      0.852613
  C      -0.671077     -3.841512     -0.020366
  H      -0.007470     -3.867713     -0.905274
  H      -0.008441     -3.872109      0.865127
  C      -1.557915     -5.092292     -0.023885
  H      -2.224775     -5.067424      0.857968
  H      -2.223411     -5.063394     -0.906640
  C      -0.757529     -6.396373     -0.026244
  H      -0.108656     -6.471160      0.863891
  H      -0.107131     -6.466991     -0.915612
  C       1.479893      2.575731     -0.003505
  H       2.155518      2.565762      0.872279
  H       2.156092      2.570080     -0.878895
  C       0.665928      3.872021     -0.000661
  H       0.003382      3.900552     -0.885480
  H       0.002252      3.896000      0.883449
  C       1.551293      5.123627      0.003021
  H       2.216435      5.096723      0.886755
  H       2.218017      5.100803     -0.879638
  C       0.748444      6.426327      0.005308
  H       0.097582      6.494527      0.894121
  H       0.099548      6.498868     -0.884591
  C       4.031675     -0.053763     -0.009994
  H      -1.421069     -7.275944     -0.028889
  H       1.410119      7.307322      0.008206
  C       5.454574     -0.104157     -0.009614
  C       6.128342     -1.346466     -0.015274
  C       7.521137     -1.388941     -0.014795
  C       8.263853     -0.202169     -0.008716
  C       7.606163      1.033861     -0.003117
  C       6.213833      1.087895     -0.003585
  H       9.355918     -0.240878     -0.008329
  H       8.183514      1.961157      0.001688
  H       5.544563     -2.268661     -0.020082
  H       5.695622      2.048620      0.000827
  H       8.032889     -2.354074     -0.019252
